<?xml version="1.0" encoding="UTF-8"?>

<!-- generated on 2022-09-11 13:32:06 by Eclipse SUMO GUI Version 1.14.1
-->

<configuration xmlns:xsi="http://www.w3.org/2001/XMLSchema-instance" xsi:noNamespaceSchemaLocation="http://sumo.dlr.de/xsd/sumoConfiguration.xsd">

    <input>
        <net-file value="circular.net.xml"/>
        <route-files value="circular.rou.xml"/>
        <additional-files value="circular.add.xml"/>
    </input>

</configuration>
