<?xml version="1.0" encoding="UTF-8"?>

<!-- generated on 2022-09-11 03:12:25 by Eclipse SUMO netedit Version 1.14.1
-->

<additionals>
    <rerouter id="rerouter_0" edges="edge1">
        <interval end="1e9">
           <destProbReroute id="edge2"/>
        </interval>
    </rerouter>
    <rerouter id="rerouter_1" edges="edge2">
        <interval end="1e9">
           <destProbReroute id="edge1"/>
        </interval>
    </rerouter>
</additionals>