<?xml version="1.0" encoding="UTF-8"?>

<!-- generated on 2022-09-11 03:03:28 by Eclipse SUMO netedit Version 1.14.1
-->

<routes xmlns:xsi="http://www.w3.org/2001/XMLSchema-instance" xsi:noNamespaceSchemaLocation="http://sumo.dlr.de/xsd/routes_file.xsd">
    <!-- Routes -->
    <route id="r_0" edges="edge1 edge2 E2 E3 E4 E5"/>
    <!-- Vehicles, persons and containers (sorted by depart) -->
    <vehicle id="v_0" depart="0.00" route="r_0"/>
    <vehicle id="v_1" depart="0.00" route="r_0"/>
    <vehicle id="v_2" depart="0.00" route="r_0"/>
</routes>
