<?xml version="1.0" encoding="UTF-8"?>

<!-- generated on Mon 12 Sep 2022 01:26:36 AM -03 by Eclipse SUMO netedit Version 1.8.0
<configuration xmlns:xsi="http://www.w3.org/2001/XMLSchema-instance" xsi:noNamespaceSchemaLocation="http://sumo.dlr.de/xsd/netconvertConfiguration.xsd">

    <output>
        <output-file value="/home/joao/USP/InterSCity/wired-rsus/wired-rsus.net.xml"/>
    </output>

    <processing>
        <offset.disable-normalization value="true"/>
    </processing>

    <junctions>
        <no-turnarounds value="true"/>
    </junctions>

    <report>
        <aggregate-warnings value="5"/>
    </report>

</configuration>
-->

<net version="1.6" junctionCornerDetail="5" limitTurnSpeed="5.50" xmlns:xsi="http://www.w3.org/2001/XMLSchema-instance" xsi:noNamespaceSchemaLocation="http://sumo.dlr.de/xsd/net_file.xsd">

    <location netOffset="0.00,0.00" convBoundary="10.00,10.00,60.00,60.00" origBoundary="10000000000.00,10000000000.00,-10000000000.00,-10000000000.00" projParameter="!"/>

    <edge id=":gneJ10_0" function="internal">
        <lane id=":gneJ10_0_0" index="0" speed="3.90" length="2.58" shape="11.60,56.80 11.70,57.50 12.00,58.00 12.50,58.30 13.20,58.40"/>
    </edge>
    <edge id=":gneJ11_0" function="internal">
        <lane id=":gneJ11_0_0" index="0" speed="3.90" length="2.58" shape="56.80,58.40 57.50,58.30 58.00,58.00 58.30,57.50 58.40,56.80"/>
    </edge>
    <edge id=":gneJ12_0" function="internal">
        <lane id=":gneJ12_0_0" index="0" speed="3.90" length="2.58" shape="58.40,13.20 58.30,12.50 58.00,12.00 57.50,11.70 56.80,11.60"/>
    </edge>
    <edge id=":gneJ13_0" function="internal">
        <lane id=":gneJ13_0_0" index="0" speed="3.90" length="2.58" shape="13.20,11.60 12.50,11.70 12.00,12.00 11.70,12.50 11.60,13.20"/>
    </edge>

    <edge id="edge1" from="gneJ10" to="gneJ11" priority="-1">
        <lane id="edge1_0" index="0" speed="13.89" length="43.60" shape="13.20,58.40 56.80,58.40"/>
    </edge>
    <edge id="edge2" from="gneJ11" to="gneJ12" priority="-1">
        <lane id="edge2_0" index="0" speed="13.89" length="43.60" shape="58.40,56.80 58.40,13.20"/>
    </edge>
    <edge id="gneE11" from="gneJ12" to="gneJ13" priority="-1">
        <lane id="gneE11_0" index="0" speed="13.89" length="43.60" shape="56.80,11.60 13.20,11.60"/>
    </edge>
    <edge id="gneE12" from="gneJ13" to="gneJ10" priority="-1">
        <lane id="gneE12_0" index="0" speed="13.89" length="43.60" shape="11.60,13.20 11.60,56.80"/>
    </edge>

    <junction id="gneJ10" type="priority" x="10.00" y="60.00" incLanes="gneE12_0" intLanes=":gneJ10_0_0" shape="13.20,60.00 13.20,56.80 10.00,56.80 10.36,58.58 10.80,59.20 11.42,59.64 12.22,59.91">
        <request index="0" response="0" foes="0" cont="0"/>
    </junction>
    <junction id="gneJ11" type="priority" x="60.00" y="60.00" incLanes="edge1_0" intLanes=":gneJ11_0_0" shape="60.00,56.80 56.80,56.80 56.80,60.00 58.58,59.64 59.20,59.20 59.64,58.58 59.91,57.78">
        <request index="0" response="0" foes="0" cont="0"/>
    </junction>
    <junction id="gneJ12" type="priority" x="60.00" y="10.00" incLanes="edge2_0" intLanes=":gneJ12_0_0" shape="56.80,13.20 60.00,13.20 59.64,11.42 59.20,10.80 58.58,10.36 57.78,10.09 56.80,10.00">
        <request index="0" response="0" foes="0" cont="0"/>
    </junction>
    <junction id="gneJ13" type="priority" x="10.00" y="10.00" incLanes="gneE11_0" intLanes=":gneJ13_0_0" shape="10.00,13.20 13.20,13.20 13.20,10.00 11.42,10.36 10.80,10.80 10.36,11.42 10.09,12.22">
        <request index="0" response="0" foes="0" cont="0"/>
    </junction>

    <connection from="edge1" to="edge2" fromLane="0" toLane="0" via=":gneJ11_0_0" dir="r" state="M"/>
    <connection from="edge2" to="gneE11" fromLane="0" toLane="0" via=":gneJ12_0_0" dir="r" state="M"/>
    <connection from="gneE11" to="gneE12" fromLane="0" toLane="0" via=":gneJ13_0_0" dir="r" state="M"/>
    <connection from="gneE12" to="edge1" fromLane="0" toLane="0" via=":gneJ10_0_0" dir="r" state="M"/>

    <connection from=":gneJ10_0" to="edge1" fromLane="0" toLane="0" dir="r" state="M"/>
    <connection from=":gneJ11_0" to="edge2" fromLane="0" toLane="0" dir="r" state="M"/>
    <connection from=":gneJ12_0" to="gneE11" fromLane="0" toLane="0" dir="r" state="M"/>
    <connection from=":gneJ13_0" to="gneE12" fromLane="0" toLane="0" dir="r" state="M"/>

</net>
