<?xml version="1.0" encoding="UTF-8"?>

<!-- generated on Mon 12 Sep 2022 02:52:45 AM -03 by Eclipse SUMO netedit Version 1.8.0
<configuration xmlns:xsi="http://www.w3.org/2001/XMLSchema-instance" xsi:noNamespaceSchemaLocation="http://sumo.dlr.de/xsd/netconvertConfiguration.xsd">

    <input>
        <sumo-net-file value="/home/joao/USP/InterSCity/wired-rsus/wired-rsus.net.xml"/>
    </input>

    <output>
        <output-file value="/home/joao/USP/InterSCity/wired-rsus/wired-rsus.net.xml"/>
    </output>

    <processing>
        <geometry.min-radius.fix.railways value="false"/>
        <geometry.max-grade.fix value="false"/>
        <offset.disable-normalization value="true"/>
        <lefthand value="false"/>
    </processing>

    <junctions>
        <no-turnarounds value="true"/>
        <junctions.corner-detail value="5"/>
        <junctions.limit-turn-speed value="5.5"/>
        <rectangular-lane-cut value="false"/>
    </junctions>

    <pedestrian>
        <walkingareas value="false"/>
    </pedestrian>

    <netedit>
        <additional-files value="/home/joao/USP/InterSCity/wired-rsus/wired-rsus.add.xml"/>
    </netedit>

    <report>
        <aggregate-warnings value="5"/>
    </report>

</configuration>
-->

<additional xmlns:xsi="http://www.w3.org/2001/XMLSchema-instance" xsi:noNamespaceSchemaLocation="http://sumo.dlr.de/xsd/additional_file.xsd">
    <rerouter id="rerouter_0" edges="edge2" pos="59.17,33.25">
        <interval begin="0.00" end="3600.00">
            <destProbReroute id="edge1"/>
        </interval>
    </rerouter>
    <rerouter id="rerouter_1" edges="edge1" pos="27.84,58.12">
        <interval begin="0.00" end="3600.00">
            <destProbReroute id="edge2"/>
        </interval>
    </rerouter>
</additional>
