<?xml version="1.0" encoding="UTF-8"?>

<!-- generated on Mon 12 Sep 2022 02:52:50 AM -03 by Eclipse SUMO netedit Version 1.8.0
<configuration xmlns:xsi="http://www.w3.org/2001/XMLSchema-instance" xsi:noNamespaceSchemaLocation="http://sumo.dlr.de/xsd/netconvertConfiguration.xsd">

    <input>
        <sumo-net-file value="/home/joao/USP/InterSCity/wired-rsus/wired-rsus.net.xml"/>
    </input>

    <output>
        <output-file value="/home/joao/USP/InterSCity/wired-rsus/wired-rsus.net.xml"/>
    </output>

    <processing>
        <geometry.min-radius.fix.railways value="false"/>
        <geometry.max-grade.fix value="false"/>
        <offset.disable-normalization value="true"/>
        <lefthand value="false"/>
    </processing>

    <junctions>
        <no-turnarounds value="true"/>
        <junctions.corner-detail value="5"/>
        <junctions.limit-turn-speed value="5.5"/>
        <rectangular-lane-cut value="false"/>
    </junctions>

    <pedestrian>
        <walkingareas value="false"/>
    </pedestrian>

    <netedit>
        <additional-files value="/home/joao/USP/InterSCity/wired-rsus/wired-rsus.add.xml"/>
        <route-files value="/home/joao/USP/InterSCity/wired-rsus/wired-rsus.rou.xml"/>
    </netedit>

    <report>
        <aggregate-warnings value="5"/>
    </report>

</configuration>
-->

<routes xmlns:xsi="http://www.w3.org/2001/XMLSchema-instance" xsi:noNamespaceSchemaLocation="http://sumo.dlr.de/xsd/routes_file.xsd">
    <route edges="edge1 edge2 gneE11 gneE12" color="yellow" id="route_0"/>
    <trip id="vehicle_0" depart="0.00" from="edge1" to="gneE12" via="edge2 gneE11"/>
    <trip id="vehicle_1" depart="0.00" from="edge1" to="gneE12" via="edge2 gneE11"/>
    <trip id="vehicle_2" depart="0.00" from="edge1" to="gneE12" via="edge2 gneE11"/>
</routes>
