<?xml version="1.0" encoding="UTF-8"?>

<!-- generated on Mon Oct 31 21:17:21 2022 by Eclipse SUMO netconvert Version 1.8.0
<configuration xmlns:xsi="http://www.w3.org/2001/XMLSchema-instance" xsi:noNamespaceSchemaLocation="http://sumo.dlr.de/xsd/netconvertConfiguration.xsd">

    <input>
        <node-files value="./examples/veins/first.nod.xml"/>
        <edge-files value="./examples/veins/first.edg.xml"/>
    </input>

    <output>
        <output-file value="./examples/veins/first.net.xml"/>
    </output>

    <report>
        <aggregate-warnings value="5"/>
    </report>

</configuration>
-->

<net version="1.6" junctionCornerDetail="5" limitTurnSpeed="5.50" xmlns:xsi="http://www.w3.org/2001/XMLSchema-instance" xsi:noNamespaceSchemaLocation="http://sumo.dlr.de/xsd/net_file.xsd">

    <location netOffset="0.00,0.00" convBoundary="0.00,0.00,2500.00,2500.00" origBoundary="0.00,0.00,2500.00,2500.00" projParameter="!"/>

    <edge id=":n00_0" function="internal">
        <lane id=":n00_0_0" index="0" speed="11.12" length="28.38" shape="-8.00,9.60 -6.90,1.90 -3.60,-3.60 1.90,-6.90 9.60,-8.00"/>
    </edge>
    <edge id=":n00_1" function="internal">
        <lane id=":n00_1_0" index="0" speed="10.10" length="23.22" shape="-4.80,9.60 -3.90,3.30 -1.20,-1.20 3.30,-3.90 9.60,-4.80"/>
    </edge>
    <edge id=":n00_2" function="internal">
        <lane id=":n00_2_0" index="0" speed="8.96" length="18.06" shape="-1.60,9.60 -0.90,4.70 1.20,1.20 4.70,-0.90 9.60,-1.60"/>
    </edge>
    <edge id=":n00_3" function="internal">
        <lane id=":n00_3_0" index="0" speed="3.90" length="2.58" shape="9.60,8.00 8.90,8.10 8.40,8.40 8.10,8.90 8.00,9.60"/>
    </edge>
    <edge id=":n00_4" function="internal">
        <lane id=":n00_4_0" index="0" speed="6.08" length="7.74" shape="9.60,4.80 7.50,5.10 6.00,6.00 5.10,7.50 4.80,9.60"/>
    </edge>
    <edge id=":n00_5" function="internal">
        <lane id=":n00_5_0" index="0" speed="7.66" length="12.90" shape="9.60,1.60 6.10,2.10 3.60,3.60 2.10,6.10 1.60,9.60"/>
    </edge>
    <edge id=":n01_0" function="internal">
        <lane id=":n01_0_0" index="0" speed="13.89" length="27.20" shape="-8.00,513.60 -8.00,486.40"/>
        <lane id=":n01_0_1" index="1" speed="13.89" length="27.20" shape="-4.80,513.60 -4.80,486.40"/>
        <lane id=":n01_0_2" index="2" speed="13.89" length="27.20" shape="-1.60,513.60 -1.60,486.40"/>
    </edge>
    <edge id=":n01_3" function="internal">
        <lane id=":n01_3_0" index="0" speed="10.88" length="9.57" shape="-1.60,513.60 -0.65,505.55 0.00,504.24"/>
    </edge>
    <edge id=":n01_4" function="internal">
        <lane id=":n01_4_0" index="0" speed="10.36" length="7.98" shape="-1.60,513.60 -0.65,506.95 -0.00,505.87"/>
    </edge>
    <edge id=":n01_5" function="internal">
        <lane id=":n01_5_0" index="0" speed="3.65" length="2.34" shape="-1.60,513.60 -0.80,512.40 0.00,512.00"/>
    </edge>
    <edge id=":n01_15" function="internal">
        <lane id=":n01_15_0" index="0" speed="10.88" length="17.57" shape="0.00,504.24 2.20,499.80 6.95,496.35 13.60,495.20"/>
    </edge>
    <edge id=":n01_16" function="internal">
        <lane id=":n01_16_0" index="0" speed="10.36" length="16.53" shape="-0.00,505.87 2.20,502.20 6.95,499.35 13.60,498.40"/>
    </edge>
    <edge id=":n01_17" function="internal">
        <lane id=":n01_17_0" index="0" speed="3.65" length="2.34" shape="0.00,512.00 0.80,512.40 1.60,513.60"/>
    </edge>
    <edge id=":n01_6" function="internal">
        <lane id=":n01_6_0" index="0" speed="6.51" length="9.03" shape="13.60,508.00 11.15,508.35 9.40,509.40 8.35,511.15 8.00,513.60"/>
    </edge>
    <edge id=":n01_7" function="internal">
        <lane id=":n01_7_0" index="0" speed="11.36" length="29.67" shape="13.60,504.80 5.55,503.65 -0.20,500.20 -3.65,494.45 -4.80,486.40"/>
    </edge>
    <edge id=":n01_8" function="internal">
        <lane id=":n01_8_0" index="0" speed="10.36" length="24.51" shape="13.60,501.60 6.95,500.65 2.20,497.80 -0.65,493.05 -1.60,486.40"/>
    </edge>
    <edge id=":n01_9" function="internal">
        <lane id=":n01_9_0" index="0" speed="3.65" length="4.67" shape="13.60,501.60 12.40,500.80 12.00,500.00 12.40,499.20 13.60,498.40"/>
    </edge>
    <edge id=":n01_10" function="internal">
        <lane id=":n01_10_0" index="0" speed="6.51" length="9.03" shape="8.00,486.40 8.35,488.85 9.40,490.60 11.15,491.65 13.60,492.00"/>
    </edge>
    <edge id=":n01_11" function="internal">
        <lane id=":n01_11_0" index="0" speed="13.89" length="27.20" shape="8.00,486.40 8.00,513.60"/>
        <lane id=":n01_11_1" index="1" speed="13.89" length="27.20" shape="4.80,486.40 4.80,513.60"/>
        <lane id=":n01_11_2" index="2" speed="13.89" length="27.20" shape="1.60,486.40 1.60,513.60"/>
    </edge>
    <edge id=":n01_14" function="internal">
        <lane id=":n01_14_0" index="0" speed="3.65" length="2.34" shape="1.60,486.40 0.80,487.60 0.00,488.00"/>
    </edge>
    <edge id=":n01_18" function="internal">
        <lane id=":n01_18_0" index="0" speed="3.65" length="2.34" shape="0.00,488.00 -0.80,487.60 -1.60,486.40"/>
    </edge>
    <edge id=":n02_0" function="internal">
        <lane id=":n02_0_0" index="0" speed="13.89" length="27.20" shape="-8.00,1013.60 -8.00,986.40"/>
        <lane id=":n02_0_1" index="1" speed="13.89" length="27.20" shape="-4.80,1013.60 -4.80,986.40"/>
        <lane id=":n02_0_2" index="2" speed="13.89" length="27.20" shape="-1.60,1013.60 -1.60,986.40"/>
    </edge>
    <edge id=":n02_3" function="internal">
        <lane id=":n02_3_0" index="0" speed="10.88" length="9.57" shape="-1.60,1013.60 -0.65,1005.55 -0.00,1004.24"/>
    </edge>
    <edge id=":n02_4" function="internal">
        <lane id=":n02_4_0" index="0" speed="10.36" length="7.98" shape="-1.60,1013.60 -0.65,1006.95 -0.00,1005.87"/>
    </edge>
    <edge id=":n02_5" function="internal">
        <lane id=":n02_5_0" index="0" speed="3.65" length="2.34" shape="-1.60,1013.60 -0.80,1012.40 0.00,1012.00"/>
    </edge>
    <edge id=":n02_15" function="internal">
        <lane id=":n02_15_0" index="0" speed="10.88" length="17.57" shape="-0.00,1004.24 2.20,999.80 6.95,996.35 13.60,995.20"/>
    </edge>
    <edge id=":n02_16" function="internal">
        <lane id=":n02_16_0" index="0" speed="10.36" length="16.53" shape="-0.00,1005.87 2.20,1002.20 6.95,999.35 13.60,998.40"/>
    </edge>
    <edge id=":n02_17" function="internal">
        <lane id=":n02_17_0" index="0" speed="3.65" length="2.34" shape="0.00,1012.00 0.80,1012.40 1.60,1013.60"/>
    </edge>
    <edge id=":n02_6" function="internal">
        <lane id=":n02_6_0" index="0" speed="6.51" length="9.03" shape="13.60,1008.00 11.15,1008.35 9.40,1009.40 8.35,1011.15 8.00,1013.60"/>
    </edge>
    <edge id=":n02_7" function="internal">
        <lane id=":n02_7_0" index="0" speed="11.36" length="29.67" shape="13.60,1004.80 5.55,1003.65 -0.20,1000.20 -3.65,994.45 -4.80,986.40"/>
    </edge>
    <edge id=":n02_8" function="internal">
        <lane id=":n02_8_0" index="0" speed="10.36" length="24.51" shape="13.60,1001.60 6.95,1000.65 2.20,997.80 -0.65,993.05 -1.60,986.40"/>
    </edge>
    <edge id=":n02_9" function="internal">
        <lane id=":n02_9_0" index="0" speed="3.65" length="4.67" shape="13.60,1001.60 12.40,1000.80 12.00,1000.00 12.40,999.20 13.60,998.40"/>
    </edge>
    <edge id=":n02_10" function="internal">
        <lane id=":n02_10_0" index="0" speed="6.51" length="9.03" shape="8.00,986.40 8.35,988.85 9.40,990.60 11.15,991.65 13.60,992.00"/>
    </edge>
    <edge id=":n02_11" function="internal">
        <lane id=":n02_11_0" index="0" speed="13.89" length="27.20" shape="8.00,986.40 8.00,1013.60"/>
        <lane id=":n02_11_1" index="1" speed="13.89" length="27.20" shape="4.80,986.40 4.80,1013.60"/>
        <lane id=":n02_11_2" index="2" speed="13.89" length="27.20" shape="1.60,986.40 1.60,1013.60"/>
    </edge>
    <edge id=":n02_14" function="internal">
        <lane id=":n02_14_0" index="0" speed="3.65" length="2.34" shape="1.60,986.40 0.80,987.60 0.00,988.00"/>
    </edge>
    <edge id=":n02_18" function="internal">
        <lane id=":n02_18_0" index="0" speed="3.65" length="2.34" shape="0.00,988.00 -0.80,987.60 -1.60,986.40"/>
    </edge>
    <edge id=":n03_0" function="internal">
        <lane id=":n03_0_0" index="0" speed="13.89" length="27.20" shape="-8.00,1513.60 -8.00,1486.40"/>
        <lane id=":n03_0_1" index="1" speed="13.89" length="27.20" shape="-4.80,1513.60 -4.80,1486.40"/>
        <lane id=":n03_0_2" index="2" speed="13.89" length="27.20" shape="-1.60,1513.60 -1.60,1486.40"/>
    </edge>
    <edge id=":n03_3" function="internal">
        <lane id=":n03_3_0" index="0" speed="10.88" length="9.57" shape="-1.60,1513.60 -0.65,1505.55 0.00,1504.24"/>
    </edge>
    <edge id=":n03_4" function="internal">
        <lane id=":n03_4_0" index="0" speed="10.36" length="7.98" shape="-1.60,1513.60 -0.65,1506.95 0.00,1505.87"/>
    </edge>
    <edge id=":n03_5" function="internal">
        <lane id=":n03_5_0" index="0" speed="3.65" length="2.34" shape="-1.60,1513.60 -0.80,1512.40 0.00,1512.00"/>
    </edge>
    <edge id=":n03_15" function="internal">
        <lane id=":n03_15_0" index="0" speed="10.88" length="17.57" shape="0.00,1504.24 2.20,1499.80 6.95,1496.35 13.60,1495.20"/>
    </edge>
    <edge id=":n03_16" function="internal">
        <lane id=":n03_16_0" index="0" speed="10.36" length="16.53" shape="0.00,1505.87 2.20,1502.20 6.95,1499.35 13.60,1498.40"/>
    </edge>
    <edge id=":n03_17" function="internal">
        <lane id=":n03_17_0" index="0" speed="3.65" length="2.34" shape="0.00,1512.00 0.80,1512.40 1.60,1513.60"/>
    </edge>
    <edge id=":n03_6" function="internal">
        <lane id=":n03_6_0" index="0" speed="6.51" length="9.03" shape="13.60,1508.00 11.15,1508.35 9.40,1509.40 8.35,1511.15 8.00,1513.60"/>
    </edge>
    <edge id=":n03_7" function="internal">
        <lane id=":n03_7_0" index="0" speed="11.36" length="29.67" shape="13.60,1504.80 5.55,1503.65 -0.20,1500.20 -3.65,1494.45 -4.80,1486.40"/>
    </edge>
    <edge id=":n03_8" function="internal">
        <lane id=":n03_8_0" index="0" speed="10.36" length="24.51" shape="13.60,1501.60 6.95,1500.65 2.20,1497.80 -0.65,1493.05 -1.60,1486.40"/>
    </edge>
    <edge id=":n03_9" function="internal">
        <lane id=":n03_9_0" index="0" speed="3.65" length="4.67" shape="13.60,1501.60 12.40,1500.80 12.00,1500.00 12.40,1499.20 13.60,1498.40"/>
    </edge>
    <edge id=":n03_10" function="internal">
        <lane id=":n03_10_0" index="0" speed="6.51" length="9.03" shape="8.00,1486.40 8.35,1488.85 9.40,1490.60 11.15,1491.65 13.60,1492.00"/>
    </edge>
    <edge id=":n03_11" function="internal">
        <lane id=":n03_11_0" index="0" speed="13.89" length="27.20" shape="8.00,1486.40 8.00,1513.60"/>
        <lane id=":n03_11_1" index="1" speed="13.89" length="27.20" shape="4.80,1486.40 4.80,1513.60"/>
        <lane id=":n03_11_2" index="2" speed="13.89" length="27.20" shape="1.60,1486.40 1.60,1513.60"/>
    </edge>
    <edge id=":n03_14" function="internal">
        <lane id=":n03_14_0" index="0" speed="3.65" length="2.34" shape="1.60,1486.40 0.80,1487.60 0.00,1488.00"/>
    </edge>
    <edge id=":n03_18" function="internal">
        <lane id=":n03_18_0" index="0" speed="3.65" length="2.34" shape="0.00,1488.00 -0.80,1487.60 -1.60,1486.40"/>
    </edge>
    <edge id=":n04_0" function="internal">
        <lane id=":n04_0_0" index="0" speed="13.89" length="27.20" shape="-8.00,2013.60 -8.00,1986.40"/>
        <lane id=":n04_0_1" index="1" speed="13.89" length="27.20" shape="-4.80,2013.60 -4.80,1986.40"/>
        <lane id=":n04_0_2" index="2" speed="13.89" length="27.20" shape="-1.60,2013.60 -1.60,1986.40"/>
    </edge>
    <edge id=":n04_3" function="internal">
        <lane id=":n04_3_0" index="0" speed="10.88" length="9.57" shape="-1.60,2013.60 -0.65,2005.55 0.00,2004.24"/>
    </edge>
    <edge id=":n04_4" function="internal">
        <lane id=":n04_4_0" index="0" speed="10.36" length="7.98" shape="-1.60,2013.60 -0.65,2006.95 0.00,2005.87"/>
    </edge>
    <edge id=":n04_5" function="internal">
        <lane id=":n04_5_0" index="0" speed="3.65" length="2.34" shape="-1.60,2013.60 -0.80,2012.40 0.00,2012.00"/>
    </edge>
    <edge id=":n04_15" function="internal">
        <lane id=":n04_15_0" index="0" speed="10.88" length="17.57" shape="0.00,2004.24 2.20,1999.80 6.95,1996.35 13.60,1995.20"/>
    </edge>
    <edge id=":n04_16" function="internal">
        <lane id=":n04_16_0" index="0" speed="10.36" length="16.53" shape="0.00,2005.87 2.20,2002.20 6.95,1999.35 13.60,1998.40"/>
    </edge>
    <edge id=":n04_17" function="internal">
        <lane id=":n04_17_0" index="0" speed="3.65" length="2.34" shape="0.00,2012.00 0.80,2012.40 1.60,2013.60"/>
    </edge>
    <edge id=":n04_6" function="internal">
        <lane id=":n04_6_0" index="0" speed="6.51" length="9.03" shape="13.60,2008.00 11.15,2008.35 9.40,2009.40 8.35,2011.15 8.00,2013.60"/>
    </edge>
    <edge id=":n04_7" function="internal">
        <lane id=":n04_7_0" index="0" speed="11.36" length="29.67" shape="13.60,2004.80 5.55,2003.65 -0.20,2000.20 -3.65,1994.45 -4.80,1986.40"/>
    </edge>
    <edge id=":n04_8" function="internal">
        <lane id=":n04_8_0" index="0" speed="10.36" length="24.51" shape="13.60,2001.60 6.95,2000.65 2.20,1997.80 -0.65,1993.05 -1.60,1986.40"/>
    </edge>
    <edge id=":n04_9" function="internal">
        <lane id=":n04_9_0" index="0" speed="3.65" length="4.67" shape="13.60,2001.60 12.40,2000.80 12.00,2000.00 12.40,1999.20 13.60,1998.40"/>
    </edge>
    <edge id=":n04_10" function="internal">
        <lane id=":n04_10_0" index="0" speed="6.51" length="9.03" shape="8.00,1986.40 8.35,1988.85 9.40,1990.60 11.15,1991.65 13.60,1992.00"/>
    </edge>
    <edge id=":n04_11" function="internal">
        <lane id=":n04_11_0" index="0" speed="13.89" length="27.20" shape="8.00,1986.40 8.00,2013.60"/>
        <lane id=":n04_11_1" index="1" speed="13.89" length="27.20" shape="4.80,1986.40 4.80,2013.60"/>
        <lane id=":n04_11_2" index="2" speed="13.89" length="27.20" shape="1.60,1986.40 1.60,2013.60"/>
    </edge>
    <edge id=":n04_14" function="internal">
        <lane id=":n04_14_0" index="0" speed="3.65" length="2.34" shape="1.60,1986.40 0.80,1987.60 0.00,1988.00"/>
    </edge>
    <edge id=":n04_18" function="internal">
        <lane id=":n04_18_0" index="0" speed="3.65" length="2.34" shape="0.00,1988.00 -0.80,1987.60 -1.60,1986.40"/>
    </edge>
    <edge id=":n05_0" function="internal">
        <lane id=":n05_0_0" index="0" speed="11.12" length="28.38" shape="9.60,2508.00 1.90,2506.90 -3.60,2503.60 -6.90,2498.10 -8.00,2490.40"/>
    </edge>
    <edge id=":n05_1" function="internal">
        <lane id=":n05_1_0" index="0" speed="10.10" length="23.22" shape="9.60,2504.80 3.30,2503.90 -1.20,2501.20 -3.90,2496.70 -4.80,2490.40"/>
    </edge>
    <edge id=":n05_2" function="internal">
        <lane id=":n05_2_0" index="0" speed="8.96" length="18.06" shape="9.60,2501.60 4.70,2500.90 1.20,2498.80 -0.90,2495.30 -1.60,2490.40"/>
    </edge>
    <edge id=":n05_3" function="internal">
        <lane id=":n05_3_0" index="0" speed="3.90" length="2.58" shape="8.00,2490.40 8.10,2491.10 8.40,2491.60 8.90,2491.90 9.60,2492.00"/>
    </edge>
    <edge id=":n05_4" function="internal">
        <lane id=":n05_4_0" index="0" speed="6.08" length="7.74" shape="4.80,2490.40 5.10,2492.50 6.00,2494.00 7.50,2494.90 9.60,2495.20"/>
    </edge>
    <edge id=":n05_5" function="internal">
        <lane id=":n05_5_0" index="0" speed="7.66" length="12.90" shape="1.60,2490.40 2.10,2493.90 3.60,2496.40 6.10,2497.90 9.60,2498.40"/>
    </edge>
    <edge id=":n10_0" function="internal">
        <lane id=":n10_0_0" index="0" speed="6.51" length="9.03" shape="492.00,13.60 491.65,11.15 490.60,9.40 488.85,8.35 486.40,8.00"/>
    </edge>
    <edge id=":n10_1" function="internal">
        <lane id=":n10_1_0" index="0" speed="11.36" length="29.67" shape="495.20,13.60 496.35,5.55 499.80,-0.20 505.55,-3.65 513.60,-4.80"/>
    </edge>
    <edge id=":n10_2" function="internal">
        <lane id=":n10_2_0" index="0" speed="10.36" length="24.51" shape="498.40,13.60 499.35,6.95 502.20,2.20 506.95,-0.65 513.60,-1.60"/>
    </edge>
    <edge id=":n10_3" function="internal">
        <lane id=":n10_3_0" index="0" speed="3.65" length="4.67" shape="498.40,13.60 499.20,12.40 500.00,12.00 500.80,12.40 501.60,13.60"/>
    </edge>
    <edge id=":n10_4" function="internal">
        <lane id=":n10_4_0" index="0" speed="6.51" length="9.03" shape="513.60,8.00 511.15,8.35 509.40,9.40 508.35,11.15 508.00,13.60"/>
    </edge>
    <edge id=":n10_5" function="internal">
        <lane id=":n10_5_0" index="0" speed="13.89" length="27.20" shape="513.60,8.00 486.40,8.00"/>
        <lane id=":n10_5_1" index="1" speed="13.89" length="27.20" shape="513.60,4.80 486.40,4.80"/>
        <lane id=":n10_5_2" index="2" speed="13.89" length="27.20" shape="513.60,1.60 486.40,1.60"/>
    </edge>
    <edge id=":n10_8" function="internal">
        <lane id=":n10_8_0" index="0" speed="3.65" length="2.34" shape="513.60,1.60 512.40,0.80 512.00,0.00"/>
    </edge>
    <edge id=":n10_15" function="internal">
        <lane id=":n10_15_0" index="0" speed="3.65" length="2.34" shape="512.00,0.00 512.40,-0.80 513.60,-1.60"/>
    </edge>
    <edge id=":n10_9" function="internal">
        <lane id=":n10_9_0" index="0" speed="13.89" length="27.20" shape="486.40,-8.00 513.60,-8.00"/>
        <lane id=":n10_9_1" index="1" speed="13.89" length="27.20" shape="486.40,-4.80 513.60,-4.80"/>
        <lane id=":n10_9_2" index="2" speed="13.89" length="27.20" shape="486.40,-1.60 513.60,-1.60"/>
    </edge>
    <edge id=":n10_12" function="internal">
        <lane id=":n10_12_0" index="0" speed="10.88" length="9.57" shape="486.40,-1.60 494.45,-0.65 495.76,0.00"/>
    </edge>
    <edge id=":n10_13" function="internal">
        <lane id=":n10_13_0" index="0" speed="10.36" length="7.98" shape="486.40,-1.60 493.05,-0.65 494.13,-0.00"/>
    </edge>
    <edge id=":n10_14" function="internal">
        <lane id=":n10_14_0" index="0" speed="3.65" length="2.34" shape="486.40,-1.60 487.60,-0.80 488.00,0.00"/>
    </edge>
    <edge id=":n10_16" function="internal">
        <lane id=":n10_16_0" index="0" speed="10.88" length="17.57" shape="495.76,0.00 500.20,2.20 503.65,6.95 504.80,13.60"/>
    </edge>
    <edge id=":n10_17" function="internal">
        <lane id=":n10_17_0" index="0" speed="10.36" length="16.53" shape="494.13,-0.00 497.80,2.20 500.65,6.95 501.60,13.60"/>
    </edge>
    <edge id=":n10_18" function="internal">
        <lane id=":n10_18_0" index="0" speed="3.65" length="2.34" shape="488.00,0.00 487.60,0.80 486.40,1.60"/>
    </edge>
    <edge id=":n11_0" function="internal">
        <lane id=":n11_0_0" index="0" speed="6.51" length="9.03" shape="492.00,513.60 491.65,511.15 490.60,509.40 488.85,508.35 486.40,508.00"/>
    </edge>
    <edge id=":n11_1" function="internal">
        <lane id=":n11_1_0" index="0" speed="13.89" length="27.20" shape="492.00,513.60 492.00,486.40"/>
        <lane id=":n11_1_1" index="1" speed="13.89" length="27.20" shape="495.20,513.60 495.20,486.40"/>
        <lane id=":n11_1_2" index="2" speed="13.89" length="27.20" shape="498.40,513.60 498.40,486.40"/>
    </edge>
    <edge id=":n11_4" function="internal">
        <lane id=":n11_4_0" index="0" speed="10.36" length="7.98" shape="498.40,513.60 499.35,506.95 500.00,505.87"/>
    </edge>
    <edge id=":n11_5" function="internal">
        <lane id=":n11_5_0" index="0" speed="3.65" length="2.34" shape="498.40,513.60 499.20,512.40 500.00,512.00"/>
    </edge>
    <edge id=":n11_24" function="internal">
        <lane id=":n11_24_0" index="0" speed="10.36" length="16.53" shape="500.00,505.87 502.20,502.20 506.95,499.35 513.60,498.40"/>
    </edge>
    <edge id=":n11_25" function="internal">
        <lane id=":n11_25_0" index="0" speed="3.65" length="2.34" shape="500.00,512.00 500.80,512.40 501.60,513.60"/>
    </edge>
    <edge id=":n11_6" function="internal">
        <lane id=":n11_6_0" index="0" speed="6.51" length="9.03" shape="513.60,508.00 511.15,508.35 509.40,509.40 508.35,511.15 508.00,513.60"/>
    </edge>
    <edge id=":n11_7" function="internal">
        <lane id=":n11_7_0" index="0" speed="13.89" length="27.20" shape="513.60,508.00 486.40,508.00"/>
        <lane id=":n11_7_1" index="1" speed="13.89" length="27.20" shape="513.60,504.80 486.40,504.80"/>
        <lane id=":n11_7_2" index="2" speed="13.89" length="27.20" shape="513.60,501.60 486.40,501.60"/>
    </edge>
    <edge id=":n11_10" function="internal">
        <lane id=":n11_10_0" index="0" speed="10.36" length="24.51" shape="513.60,501.60 506.95,500.65 502.20,497.80 499.35,493.05 498.40,486.40"/>
    </edge>
    <edge id=":n11_11" function="internal">
        <lane id=":n11_11_0" index="0" speed="3.65" length="4.67" shape="513.60,501.60 512.40,500.80 512.00,500.00 512.40,499.20 513.60,498.40"/>
    </edge>
    <edge id=":n11_12" function="internal">
        <lane id=":n11_12_0" index="0" speed="6.51" length="9.03" shape="508.00,486.40 508.35,488.85 509.40,490.60 511.15,491.65 513.60,492.00"/>
    </edge>
    <edge id=":n11_13" function="internal">
        <lane id=":n11_13_0" index="0" speed="13.89" length="27.20" shape="508.00,486.40 508.00,513.60"/>
        <lane id=":n11_13_1" index="1" speed="13.89" length="27.20" shape="504.80,486.40 504.80,513.60"/>
        <lane id=":n11_13_2" index="2" speed="13.89" length="27.20" shape="501.60,486.40 501.60,513.60"/>
    </edge>
    <edge id=":n11_16" function="internal">
        <lane id=":n11_16_0" index="0" speed="10.36" length="7.98" shape="501.60,486.40 500.65,493.05 500.00,494.13"/>
    </edge>
    <edge id=":n11_17" function="internal">
        <lane id=":n11_17_0" index="0" speed="3.65" length="2.34" shape="501.60,486.40 500.80,487.60 500.00,488.00"/>
    </edge>
    <edge id=":n11_26" function="internal">
        <lane id=":n11_26_0" index="0" speed="10.36" length="16.53" shape="500.00,494.13 497.80,497.80 493.05,500.65 486.40,501.60"/>
    </edge>
    <edge id=":n11_27" function="internal">
        <lane id=":n11_27_0" index="0" speed="3.65" length="2.34" shape="500.00,488.00 499.20,487.60 498.40,486.40"/>
    </edge>
    <edge id=":n11_18" function="internal">
        <lane id=":n11_18_0" index="0" speed="6.51" length="9.03" shape="486.40,492.00 488.85,491.65 490.60,490.60 491.65,488.85 492.00,486.40"/>
    </edge>
    <edge id=":n11_19" function="internal">
        <lane id=":n11_19_0" index="0" speed="13.89" length="27.20" shape="486.40,492.00 513.60,492.00"/>
        <lane id=":n11_19_1" index="1" speed="13.89" length="27.20" shape="486.40,495.20 513.60,495.20"/>
        <lane id=":n11_19_2" index="2" speed="13.89" length="27.20" shape="486.40,498.40 513.60,498.40"/>
    </edge>
    <edge id=":n11_22" function="internal">
        <lane id=":n11_22_0" index="0" speed="10.36" length="24.51" shape="486.40,498.40 493.05,499.35 497.80,502.20 500.65,506.95 501.60,513.60"/>
    </edge>
    <edge id=":n11_23" function="internal">
        <lane id=":n11_23_0" index="0" speed="3.65" length="4.67" shape="486.40,498.40 487.60,499.20 488.00,500.00 487.60,500.80 486.40,501.60"/>
    </edge>
    <edge id=":n12_0" function="internal">
        <lane id=":n12_0_0" index="0" speed="6.51" length="9.03" shape="492.00,1013.60 491.65,1011.15 490.60,1009.40 488.85,1008.35 486.40,1008.00"/>
    </edge>
    <edge id=":n12_1" function="internal">
        <lane id=":n12_1_0" index="0" speed="13.89" length="27.20" shape="492.00,1013.60 492.00,986.40"/>
        <lane id=":n12_1_1" index="1" speed="13.89" length="27.20" shape="495.20,1013.60 495.20,986.40"/>
        <lane id=":n12_1_2" index="2" speed="13.89" length="27.20" shape="498.40,1013.60 498.40,986.40"/>
    </edge>
    <edge id=":n12_4" function="internal">
        <lane id=":n12_4_0" index="0" speed="10.36" length="7.98" shape="498.40,1013.60 499.35,1006.95 500.00,1005.87"/>
    </edge>
    <edge id=":n12_5" function="internal">
        <lane id=":n12_5_0" index="0" speed="3.65" length="2.34" shape="498.40,1013.60 499.20,1012.40 500.00,1012.00"/>
    </edge>
    <edge id=":n12_24" function="internal">
        <lane id=":n12_24_0" index="0" speed="10.36" length="16.53" shape="500.00,1005.87 502.20,1002.20 506.95,999.35 513.60,998.40"/>
    </edge>
    <edge id=":n12_25" function="internal">
        <lane id=":n12_25_0" index="0" speed="3.65" length="2.34" shape="500.00,1012.00 500.80,1012.40 501.60,1013.60"/>
    </edge>
    <edge id=":n12_6" function="internal">
        <lane id=":n12_6_0" index="0" speed="6.51" length="9.03" shape="513.60,1008.00 511.15,1008.35 509.40,1009.40 508.35,1011.15 508.00,1013.60"/>
    </edge>
    <edge id=":n12_7" function="internal">
        <lane id=":n12_7_0" index="0" speed="13.89" length="27.20" shape="513.60,1008.00 486.40,1008.00"/>
        <lane id=":n12_7_1" index="1" speed="13.89" length="27.20" shape="513.60,1004.80 486.40,1004.80"/>
        <lane id=":n12_7_2" index="2" speed="13.89" length="27.20" shape="513.60,1001.60 486.40,1001.60"/>
    </edge>
    <edge id=":n12_10" function="internal">
        <lane id=":n12_10_0" index="0" speed="10.36" length="24.51" shape="513.60,1001.60 506.95,1000.65 502.20,997.80 499.35,993.05 498.40,986.40"/>
    </edge>
    <edge id=":n12_11" function="internal">
        <lane id=":n12_11_0" index="0" speed="3.65" length="4.67" shape="513.60,1001.60 512.40,1000.80 512.00,1000.00 512.40,999.20 513.60,998.40"/>
    </edge>
    <edge id=":n12_12" function="internal">
        <lane id=":n12_12_0" index="0" speed="6.51" length="9.03" shape="508.00,986.40 508.35,988.85 509.40,990.60 511.15,991.65 513.60,992.00"/>
    </edge>
    <edge id=":n12_13" function="internal">
        <lane id=":n12_13_0" index="0" speed="13.89" length="27.20" shape="508.00,986.40 508.00,1013.60"/>
        <lane id=":n12_13_1" index="1" speed="13.89" length="27.20" shape="504.80,986.40 504.80,1013.60"/>
        <lane id=":n12_13_2" index="2" speed="13.89" length="27.20" shape="501.60,986.40 501.60,1013.60"/>
    </edge>
    <edge id=":n12_16" function="internal">
        <lane id=":n12_16_0" index="0" speed="10.36" length="7.98" shape="501.60,986.40 500.65,993.05 500.00,994.13"/>
    </edge>
    <edge id=":n12_17" function="internal">
        <lane id=":n12_17_0" index="0" speed="3.65" length="2.34" shape="501.60,986.40 500.80,987.60 500.00,988.00"/>
    </edge>
    <edge id=":n12_26" function="internal">
        <lane id=":n12_26_0" index="0" speed="10.36" length="16.53" shape="500.00,994.13 497.80,997.80 493.05,1000.65 486.40,1001.60"/>
    </edge>
    <edge id=":n12_27" function="internal">
        <lane id=":n12_27_0" index="0" speed="3.65" length="2.34" shape="500.00,988.00 499.20,987.60 498.40,986.40"/>
    </edge>
    <edge id=":n12_18" function="internal">
        <lane id=":n12_18_0" index="0" speed="6.51" length="9.03" shape="486.40,992.00 488.85,991.65 490.60,990.60 491.65,988.85 492.00,986.40"/>
    </edge>
    <edge id=":n12_19" function="internal">
        <lane id=":n12_19_0" index="0" speed="13.89" length="27.20" shape="486.40,992.00 513.60,992.00"/>
        <lane id=":n12_19_1" index="1" speed="13.89" length="27.20" shape="486.40,995.20 513.60,995.20"/>
        <lane id=":n12_19_2" index="2" speed="13.89" length="27.20" shape="486.40,998.40 513.60,998.40"/>
    </edge>
    <edge id=":n12_22" function="internal">
        <lane id=":n12_22_0" index="0" speed="10.36" length="24.51" shape="486.40,998.40 493.05,999.35 497.80,1002.20 500.65,1006.95 501.60,1013.60"/>
    </edge>
    <edge id=":n12_23" function="internal">
        <lane id=":n12_23_0" index="0" speed="3.65" length="4.67" shape="486.40,998.40 487.60,999.20 488.00,1000.00 487.60,1000.80 486.40,1001.60"/>
    </edge>
    <edge id=":n13_0" function="internal">
        <lane id=":n13_0_0" index="0" speed="6.51" length="9.03" shape="492.00,1513.60 491.65,1511.15 490.60,1509.40 488.85,1508.35 486.40,1508.00"/>
    </edge>
    <edge id=":n13_1" function="internal">
        <lane id=":n13_1_0" index="0" speed="13.89" length="27.20" shape="492.00,1513.60 492.00,1486.40"/>
        <lane id=":n13_1_1" index="1" speed="13.89" length="27.20" shape="495.20,1513.60 495.20,1486.40"/>
        <lane id=":n13_1_2" index="2" speed="13.89" length="27.20" shape="498.40,1513.60 498.40,1486.40"/>
    </edge>
    <edge id=":n13_4" function="internal">
        <lane id=":n13_4_0" index="0" speed="10.36" length="7.98" shape="498.40,1513.60 499.35,1506.95 500.00,1505.87"/>
    </edge>
    <edge id=":n13_5" function="internal">
        <lane id=":n13_5_0" index="0" speed="3.65" length="2.34" shape="498.40,1513.60 499.20,1512.40 500.00,1512.00"/>
    </edge>
    <edge id=":n13_24" function="internal">
        <lane id=":n13_24_0" index="0" speed="10.36" length="16.53" shape="500.00,1505.87 502.20,1502.20 506.95,1499.35 513.60,1498.40"/>
    </edge>
    <edge id=":n13_25" function="internal">
        <lane id=":n13_25_0" index="0" speed="3.65" length="2.34" shape="500.00,1512.00 500.80,1512.40 501.60,1513.60"/>
    </edge>
    <edge id=":n13_6" function="internal">
        <lane id=":n13_6_0" index="0" speed="6.51" length="9.03" shape="513.60,1508.00 511.15,1508.35 509.40,1509.40 508.35,1511.15 508.00,1513.60"/>
    </edge>
    <edge id=":n13_7" function="internal">
        <lane id=":n13_7_0" index="0" speed="13.89" length="27.20" shape="513.60,1508.00 486.40,1508.00"/>
        <lane id=":n13_7_1" index="1" speed="13.89" length="27.20" shape="513.60,1504.80 486.40,1504.80"/>
        <lane id=":n13_7_2" index="2" speed="13.89" length="27.20" shape="513.60,1501.60 486.40,1501.60"/>
    </edge>
    <edge id=":n13_10" function="internal">
        <lane id=":n13_10_0" index="0" speed="10.36" length="24.51" shape="513.60,1501.60 506.95,1500.65 502.20,1497.80 499.35,1493.05 498.40,1486.40"/>
    </edge>