<?xml version="1.0" encoding="UTF-8"?>

<!-- generated on Sat Mar 11 15:06:58 2023 by Eclipse SUMO netedit Version 1.8.0
<configuration xmlns:xsi="http://www.w3.org/2001/XMLSchema-instance" xsi:noNamespaceSchemaLocation="http://sumo.dlr.de/xsd/netconvertConfiguration.xsd">

    <input>
        <sumo-net-file value="/root/models/projects/vanet-emergency-system/examples/veins/first.net.xml"/>
    </input>

    <output>
        <output-file value="/root/models/projects/vanet-emergency-system/examples/veins/first.net.xml"/>
    </output>

    <processing>
        <geometry.min-radius.fix.railways value="false"/>
        <geometry.max-grade.fix value="false"/>
        <offset.disable-normalization value="true"/>
        <lefthand value="false"/>
    </processing>

    <junctions>
        <no-turnarounds value="true"/>
        <junctions.corner-detail value="5"/>
        <junctions.limit-turn-speed value="5.5"/>
        <rectangular-lane-cut value="false"/>
    </junctions>

    <pedestrian>
        <walkingareas value="false"/>
    </pedestrian>

    <report>
        <aggregate-warnings value="5"/>
    </report>

</configuration>
-->

<net version="1.6" junctionCornerDetail="5" limitTurnSpeed="5.50" xmlns:xsi="http://www.w3.org/2001/XMLSchema-instance" xsi:noNamespaceSchemaLocation="http://sumo.dlr.de/xsd/net_file.xsd">

    <location netOffset="0.00,0.00" convBoundary="0.00,0.00,1500.00,1500.00" origBoundary="0.00,0.00,1500.00,1500.00" projParameter="!"/>

    <edge id=":n00_0" function="internal">
        <lane id=":n00_0_0" index="0" speed="11.12" length="28.38" shape="-8.00,9.60 -6.90,1.90 -3.60,-3.60 1.90,-6.90 9.60,-8.00"/>
    </edge>
    <edge id=":n00_1" function="internal">
        <lane id=":n00_1_0" index="0" speed="10.10" length="23.22" shape="-4.80,9.60 -3.90,3.30 -1.20,-1.20 3.30,-3.90 9.60,-4.80"/>
    </edge>
    <edge id=":n00_2" function="internal">
        <lane id=":n00_2_0" index="0" speed="8.96" length="18.06" shape="-1.60,9.60 -0.90,4.70 1.20,1.20 4.70,-0.90 9.60,-1.60"/>
    </edge>
    <edge id=":n00_3" function="internal">
        <lane id=":n00_3_0" index="0" speed="3.90" length="2.58" shape="9.60,8.00 8.90,8.10 8.40,8.40 8.10,8.90 8.00,9.60"/>
    </edge>
    <edge id=":n00_4" function="internal">
        <lane id=":n00_4_0" index="0" speed="6.08" length="7.74" shape="9.60,4.80 7.50,5.10 6.00,6.00 5.10,7.50 4.80,9.60"/>
    </edge>
    <edge id=":n00_5" function="internal">
        <lane id=":n00_5_0" index="0" speed="7.66" length="12.90" shape="9.60,1.60 6.10,2.10 3.60,3.60 2.10,6.10 1.60,9.60"/>
    </edge>
    <edge id=":n01_0" function="internal">
        <lane id=":n01_0_0" index="0" speed="13.89" length="27.20" shape="-8.00,313.60 -8.00,286.40"/>
        <lane id=":n01_0_1" index="1" speed="13.89" length="27.20" shape="-4.80,313.60 -4.80,286.40"/>
        <lane id=":n01_0_2" index="2" speed="13.89" length="27.20" shape="-1.60,313.60 -1.60,286.40"/>
    </edge>
    <edge id=":n01_3" function="internal">
        <lane id=":n01_3_0" index="0" speed="10.88" length="9.57" shape="-1.60,313.60 -0.65,305.55 0.00,304.24"/>
    </edge>
    <edge id=":n01_4" function="internal">
        <lane id=":n01_4_0" index="0" speed="10.36" length="7.98" shape="-1.60,313.60 -0.65,306.95 -0.00,305.87"/>
    </edge>
    <edge id=":n01_5" function="internal">
        <lane id=":n01_5_0" index="0" speed="3.65" length="2.34" shape="-1.60,313.60 -0.80,312.40 0.00,312.00"/>
    </edge>
    <edge id=":n01_15" function="internal">
        <lane id=":n01_15_0" index="0" speed="10.88" length="17.57" shape="0.00,304.24 2.20,299.80 6.95,296.35 13.60,295.20"/>
    </edge>
    <edge id=":n01_16" function="internal">
        <lane id=":n01_16_0" index="0" speed="10.36" length="16.53" shape="-0.00,305.87 2.20,302.20 6.95,299.35 13.60,298.40"/>
    </edge>
    <edge id=":n01_17" function="internal">
        <lane id=":n01_17_0" index="0" speed="3.65" length="2.34" shape="0.00,312.00 0.80,312.40 1.60,313.60"/>
    </edge>
    <edge id=":n01_6" function="internal">
        <lane id=":n01_6_0" index="0" speed="6.51" length="9.03" shape="13.60,308.00 11.15,308.35 9.40,309.40 8.35,311.15 8.00,313.60"/>
    </edge>
    <edge id=":n01_7" function="internal">
        <lane id=":n01_7_0" index="0" speed="11.36" length="29.67" shape="13.60,304.80 5.55,303.65 -0.20,300.20 -3.65,294.45 -4.80,286.40"/>
    </edge>
    <edge id=":n01_8" function="internal">
        <lane id=":n01_8_0" index="0" speed="10.36" length="24.51" shape="13.60,301.60 6.95,300.65 2.20,297.80 -0.65,293.05 -1.60,286.40"/>
    </edge>
    <edge id=":n01_9" function="internal">
        <lane id=":n01_9_0" index="0" speed="3.65" length="4.67" shape="13.60,301.60 12.40,300.80 12.00,300.00 12.40,299.20 13.60,298.40"/>
    </edge>
    <edge id=":n01_10" function="internal">
        <lane id=":n01_10_0" index="0" speed="6.51" length="9.03" shape="8.00,286.40 8.35,288.85 9.40,290.60 11.15,291.65 13.60,292.00"/>
    </edge>
    <edge id=":n01_11" function="internal">
        <lane id=":n01_11_0" index="0" speed="13.89" length="27.20" shape="8.00,286.40 8.00,313.60"/>
        <lane id=":n01_11_1" index="1" speed="13.89" length="27.20" shape="4.80,286.40 4.80,313.60"/>
        <lane id=":n01_11_2" index="2" speed="13.89" length="27.20" shape="1.60,286.40 1.60,313.60"/>
    </edge>
    <edge id=":n01_14" function="internal">
        <lane id=":n01_14_0" index="0" speed="3.65" length="2.34" shape="1.60,286.40 0.80,287.60 0.00,288.00"/>
    </edge>
    <edge id=":n01_18" function="internal">
        <lane id=":n01_18_0" index="0" speed="3.65" length="2.34" shape="0.00,288.00 -0.80,287.60 -1.60,286.40"/>
    </edge>
    <edge id=":n02_0" function="internal">
        <lane id=":n02_0_0" index="0" speed="13.89" length="27.20" shape="-8.00,613.60 -8.00,586.40"/>
        <lane id=":n02_0_1" index="1" speed="13.89" length="27.20" shape="-4.80,613.60 -4.80,586.40"/>
        <lane id=":n02_0_2" index="2" speed="13.89" length="27.20" shape="-1.60,613.60 -1.60,586.40"/>
    </edge>
    <edge id=":n02_3" function="internal">
        <lane id=":n02_3_0" index="0" speed="10.88" length="9.57" shape="-1.60,613.60 -0.65,605.55 -0.00,604.24"/>
    </edge>
    <edge id=":n02_4" function="internal">
        <lane id=":n02_4_0" index="0" speed="10.36" length="7.98" shape="-1.60,613.60 -0.65,606.95 -0.00,605.87"/>
    </edge>
    <edge id=":n02_5" function="internal">
        <lane id=":n02_5_0" index="0" speed="3.65" length="2.34" shape="-1.60,613.60 -0.80,612.40 0.00,612.00"/>
    </edge>
    <edge id=":n02_15" function="internal">
        <lane id=":n02_15_0" index="0" speed="10.88" length="17.57" shape="-0.00,604.24 2.20,599.80 6.95,596.35 13.60,595.20"/>
    </edge>
    <edge id=":n02_16" function="internal">
        <lane id=":n02_16_0" index="0" speed="10.36" length="16.53" shape="-0.00,605.87 2.20,602.20 6.95,599.35 13.60,598.40"/>
    </edge>
    <edge id=":n02_17" function="internal">
        <lane id=":n02_17_0" index="0" speed="3.65" length="2.34" shape="0.00,612.00 0.80,612.40 1.60,613.60"/>
    </edge>
    <edge id=":n02_6" function="internal">
        <lane id=":n02_6_0" index="0" speed="6.51" length="9.03" shape="13.60,608.00 11.15,608.35 9.40,609.40 8.35,611.15 8.00,613.60"/>
    </edge>
    <edge id=":n02_7" function="internal">
        <lane id=":n02_7_0" index="0" speed="11.36" length="29.67" shape="13.60,604.80 5.55,603.65 -0.20,600.20 -3.65,594.45 -4.80,586.40"/>
    </edge>
    <edge id=":n02_8" function="internal">
        <lane id=":n02_8_0" index="0" speed="10.36" length="24.51" shape="13.60,601.60 6.95,600.65 2.20,597.80 -0.65,593.05 -1.60,586.40"/>
    </edge>
    <edge id=":n02_9" function="internal">
        <lane id=":n02_9_0" index="0" speed="3.65" length="4.67" shape="13.60,601.60 12.40,600.80 12.00,600.00 12.40,599.20 13.60,598.40"/>
    </edge>
    <edge id=":n02_10" function="internal">
        <lane id=":n02_10_0" index="0" speed="6.51" length="9.03" shape="8.00,586.40 8.35,588.85 9.40,590.60 11.15,591.65 13.60,592.00"/>
    </edge>
    <edge id=":n02_11" function="internal">
        <lane id=":n02_11_0" index="0" speed="13.89" length="27.20" shape="8.00,586.40 8.00,613.60"/>
        <lane id=":n02_11_1" index="1" speed="13.89" length="27.20" shape="4.80,586.40 4.80,613.60"/>
        <lane id=":n02_11_2" index="2" speed="13.89" length="27.20" shape="1.60,586.40 1.60,613.60"/>
    </edge>
    <edge id=":n02_14" function="internal">
        <lane id=":n02_14_0" index="0" speed="3.65" length="2.34" shape="1.60,586.40 0.80,587.60 0.00,588.00"/>
    </edge>
    <edge id=":n02_18" function="internal">
        <lane id=":n02_18_0" index="0" speed="3.65" length="2.34" shape="0.00,588.00 -0.80,587.60 -1.60,586.40"/>
    </edge>
    <edge id=":n03_0" function="internal">
        <lane id=":n03_0_0" index="0" speed="13.89" length="27.20" shape="-8.00,913.60 -8.00,886.40"/>
        <lane id=":n03_0_1" index="1" speed="13.89" length="27.20" shape="-4.80,913.60 -4.80,886.40"/>
        <lane id=":n03_0_2" index="2" speed="13.89" length="27.20" shape="-1.60,913.60 -1.60,886.40"/>
    </edge>
    <edge id=":n03_3" function="internal">
        <lane id=":n03_3_0" index="0" speed="10.88" length="9.57" shape="-1.60,913.60 -0.65,905.55 -0.00,904.24"/>
    </edge>
    <edge id=":n03_4" function="internal">
        <lane id=":n03_4_0" index="0" speed="10.36" length="7.98" shape="-1.60,913.60 -0.65,906.95 -0.00,905.87"/>
    </edge>
    <edge id=":n03_5" function="internal">
        <lane id=":n03_5_0" index="0" speed="3.65" length="2.34" shape="-1.60,913.60 -0.80,912.40 0.00,912.00"/>
    </edge>
    <edge id=":n03_15" function="internal">
        <lane id=":n03_15_0" index="0" speed="10.88" length="17.57" shape="-0.00,904.24 2.20,899.80 6.95,896.35 13.60,895.20"/>
    </edge>
    <edge id=":n03_16" function="internal">
        <lane id=":n03_16_0" index="0" speed="10.36" length="16.53" shape="-0.00,905.87 2.20,902.20 6.95,899.35 13.60,898.40"/>
    </edge>
    <edge id=":n03_17" function="internal">
        <lane id=":n03_17_0" index="0" speed="3.65" length="2.34" shape="0.00,912.00 0.80,912.40 1.60,913.60"/>
    </edge>
    <edge id=":n03_6" function="internal">
        <lane id=":n03_6_0" index="0" speed="6.51" length="9.03" shape="13.60,908.00 11.15,908.35 9.40,909.40 8.35,911.15 8.00,913.60"/>
    </edge>
    <edge id=":n03_7" function="internal">
        <lane id=":n03_7_0" index="0" speed="11.36" length="29.67" shape="13.60,904.80 5.55,903.65 -0.20,900.20 -3.65,894.45 -4.80,886.40"/>
    </edge>
    <edge id=":n03_8" function="internal">
        <lane id=":n03_8_0" index="0" speed="10.36" length="24.51" shape="13.60,901.60 6.95,900.65 2.20,897.80 -0.65,893.05 -1.60,886.40"/>
    </edge>
    <edge id=":n03_9" function="internal">
        <lane id=":n03_9_0" index="0" speed="3.65" length="4.67" shape="13.60,901.60 12.40,900.80 12.00,900.00 12.40,899.20 13.60,898.40"/>
    </edge>
    <edge id=":n03_10" function="internal">
        <lane id=":n03_10_0" index="0" speed="6.51" length="9.03" shape="8.00,886.40 8.35,888.85 9.40,890.60 11.15,891.65 13.60,892.00"/>
    </edge>
    <edge id=":n03_11" function="internal">
        <lane id=":n03_11_0" index="0" speed="13.89" length="27.20" shape="8.00,886.40 8.00,913.60"/>
        <lane id=":n03_11_1" index="1" speed="13.89" length="27.20" shape="4.80,886.40 4.80,913.60"/>
        <lane id=":n03_11_2" index="2" speed="13.89" length="27.20" shape="1.60,886.40 1.60,913.60"/>
    </edge>
    <edge id=":n03_14" function="internal">
        <lane id=":n03_14_0" index="0" speed="3.65" length="2.34" shape="1.60,886.40 0.80,887.60 0.00,888.00"/>
    </edge>
    <edge id=":n03_18" function="internal">
        <lane id=":n03_18_0" index="0" speed="3.65" length="2.34" shape="0.00,888.00 -0.80,887.60 -1.60,886.40"/>
    </edge>
    <edge id=":n04_0" function="internal">
        <lane id=":n04_0_0" index="0" speed="13.89" length="27.20" shape="-8.00,1213.60 -8.00,1186.40"/>
        <lane id=":n04_0_1" index="1" speed="13.89" length="27.20" shape="-4.80,1213.60 -4.80,1186.40"/>
        <lane id=":n04_0_2" index="2" speed="13.89" length="27.20" shape="-1.60,1213.60 -1.60,1186.40"/>
    </edge>
    <edge id=":n04_3" function="internal">
        <lane id=":n04_3_0" index="0" speed="10.88" length="9.57" shape="-1.60,1213.60 -0.65,1205.55 0.00,1204.24"/>
    </edge>
    <edge id=":n04_4" function="internal">
        <lane id=":n04_4_0" index="0" speed="10.36" length="7.98" shape="-1.60,1213.60 -0.65,1206.95 -0.00,1205.87"/>
    </edge>
    <edge id=":n04_5" function="internal">
        <lane id=":n04_5_0" index="0" speed="3.65" length="2.34" shape="-1.60,1213.60 -0.80,1212.40 0.00,1212.00"/>
    </edge>
    <edge id=":n04_15" function="internal">
        <lane id=":n04_15_0" index="0" speed="10.88" length="17.57" shape="0.00,1204.24 2.20,1199.80 6.95,1196.35 13.60,1195.20"/>
    </edge>
    <edge id=":n04_16" function="internal">
        <lane id=":n04_16_0" index="0" speed="10.36" length="16.53" shape="-0.00,1205.87 2.20,1202.20 6.95,1199.35 13.60,1198.40"/>
    </edge>
    <edge id=":n04_17" function="internal">
        <lane id=":n04_17_0" index="0" speed="3.65" length="2.34" shape="0.00,1212.00 0.80,1212.40 1.60,1213.60"/>
    </edge>
    <edge id=":n04_6" function="internal">
        <lane id=":n04_6_0" index="0" speed="6.51" length="9.03" shape="13.60,1208.00 11.15,1208.35 9.40,1209.40 8.35,1211.15 8.00,1213.60"/>
    </edge>
    <edge id=":n04_7" function="internal">
        <lane id=":n04_7_0" index="0" speed="11.36" length="29.67" shape="13.60,1204.80 5.55,1203.65 -0.20,1200.20 -3.65,1194.45 -4.80,1186.40"/>
    </edge>
    <edge id=":n04_8" function="internal">
        <lane id=":n04_8_0" index="0" speed="10.36" length="24.51" shape="13.60,1201.60 6.95,1200.65 2.20,1197.80 -0.65,1193.05 -1.60,1186.40"/>
    </edge>
    <edge id=":n04_9" function="internal">
        <lane id=":n04_9_0" index="0" speed="3.65" length="4.67" shape="13.60,1201.60 12.40,1200.80 12.00,1200.00 12.40,1199.20 13.60,1198.40"/>
    </edge>
    <edge id=":n04_10" function="internal">
        <lane id=":n04_10_0" index="0" speed="6.51" length="9.03" shape="8.00,1186.40 8.35,1188.85 9.40,1190.60 11.15,1191.65 13.60,1192.00"/>
    </edge>
    <edge id=":n04_11" function="internal">
        <lane id=":n04_11_0" index="0" speed="13.89" length="27.20" shape="8.00,1186.40 8.00,1213.60"/>
        <lane id=":n04_11_1" index="1" speed="13.89" length="27.20" shape="4.80,1186.40 4.80,1213.60"/>
        <lane id=":n04_11_2" index="2" speed="13.89" length="27.20" shape="1.60,1186.40 1.60,1213.60"/>
    </edge>
    <edge id=":n04_14" function="internal">
        <lane id=":n04_14_0" index="0" speed="3.65" length="2.34" shape="1.60,1186.40 0.80,1187.60 0.00,1188.00"/>
    </edge>
    <edge id=":n04_18" function="internal">
        <lane id=":n04_18_0" index="0" speed="3.65" length="2.34" shape="0.00,1188.00 -0.80,1187.60 -1.60,1186.40"/>
    </edge>
    <edge id=":n05_0" function="internal">
        <lane id=":n05_0_0" index="0" speed="11.12" length="28.38" shape="9.60,1508.00 1.90,1506.90 -3.60,1503.60 -6.90,1498.10 -8.00,1490.40"/>
    </edge>
    <edge id=":n05_1" function="internal">
        <lane id=":n05_1_0" index="0" speed="10.10" length="23.22" shape="9.60,1504.80 3.30,1503.90 -1.20,1501.20 -3.90,1496.70 -4.80,1490.40"/>
    </edge>
    <edge id=":n05_2" function="internal">
        <lane id=":n05_2_0" index="0" speed="8.96" length="18.06" shape="9.60,1501.60 4.70,1500.90 1.20,1498.80 -0.90,1495.30 -1.60,1490.40"/>
    </edge>
    <edge id=":n05_3" function="internal">
        <lane id=":n05_3_0" index="0" speed="3.90" length="2.58" shape="8.00,1490.40 8.10,1491.10 8.40,1491.60 8.90,1491.90 9.60,1492.00"/>
    </edge>
    <edge id=":n05_4" function="internal">
        <lane id=":n05_4_0" index="0" speed="6.08" length="7.74" shape="4.80,1490.40 5.10,1492.50 6.00,1494.00 7.50,1494.90 9.60,1495.20"/>
    </edge>
    <edge id=":n05_5" function="internal">
        <lane id=":n05_5_0" index="0" speed="7.66" length="12.90" shape="1.60,1490.40 2.10,1493.90 3.60,1496.40 6.10,1497.90 9.60,1498.40"/>
    </edge>
    <edge id=":n10_0" function="internal">
        <lane id=":n10_0_0" index="0" speed="6.51" length="9.03" shape="292.00,13.60 291.65,11.15 290.60,9.40 288.85,8.35 286.40,8.00"/>
    </edge>
    <edge id=":n10_1" function="internal">
        <lane id=":n10_1_0" index="0" speed="11.36" length="29.67" shape="295.20,13.60 296.35,5.55 299.80,-0.20 305.55,-3.65 313.60,-4.80"/>
    </edge>
    <edge id=":n10_2" function="internal">
        <lane id=":n10_2_0" index="0" speed="10.36" length="24.51" shape="298.40,13.60 299.35,6.95 302.20,2.20 306.95,-0.65 313.60,-1.60"/>
    </edge>
    <edge id=":n10_3" function="internal">
        <lane id=":n10_3_0" index="0" speed="3.65" length="4.67" shape="298.40,13.60 299.20,12.40 300.00,12.00 300.80,12.40 301.60,13.60"/>
    </edge>
    <edge id=":n10_4" function="internal">
        <lane id=":n10_4_0" index="0" speed="6.51" length="9.03" shape="313.60,8.00 311.15,8.35 309.40,9.40 308.35,11.15 308.00,13.60"/>
    </edge>
    <edge id=":n10_5" function="internal">
        <lane id=":n10_5_0" index="0" speed="13.89" length="27.20" shape="313.60,8.00 286.40,8.00"/>
        <lane id=":n10_5_1" index="1" speed="13.89" length="27.20" shape="313.60,4.80 286.40,4.80"/>
        <lane id=":n10_5_2" index="2" speed="13.89" length="27.20" shape="313.60,1.60 286.40,1.60"/>
    </edge>
    <edge id=":n10_8" function="internal">
        <lane id=":n10_8_0" index="0" speed="3.65" length="2.34" shape="313.60,1.60 312.40,0.80 312.00,0.00"/>
    </edge>
    <edge id=":n10_15" function="internal">
        <lane id=":n10_15_0" index="0" speed="3.65" length="2.34" shape="312.00,0.00 312.40,-0.80 313.60,-1.60"/>
    </edge>
    <edge id=":n10_9" function="internal">
        <lane id=":n10_9_0" index="0" speed="13.89" length="27.20" shape="286.40,-8.00 313.60,-8.00"/>
        <lane id=":n10_9_1" index="1" speed="13.89" length="27.20" shape="286.40,-4.80 313.60,-4.80"/>
        <lane id=":n10_9_2" index="2" speed="13.89" length="27.20" shape="286.40,-1.60 313.60,-1.60"/>
    </edge>
    <edge id=":n10_12" function="internal">
        <lane id=":n10_12_0" index="0" speed="10.88" length="9.57" shape="286.40,-1.60 294.45,-0.65 295.76,0.00"/>
    </edge>
    <edge id=":n10_13" function="internal">
        <lane id=":n10_13_0" index="0" speed="10.36" length="7.98" shape="286.40,-1.60 293.05,-0.65 294.13,-0.00"/>
    </edge>
    <edge id=":n10_14" function="internal">
        <lane id=":n10_14_0" index="0" speed="3.65" length="2.34" shape="286.40,-1.60 287.60,-0.80 288.00,0.00"/>
    </edge>
    <edge id=":n10_16" function="internal">
        <lane id=":n10_16_0" index="0" speed="10.88" length="17.57" shape="295.76,0.00 300.20,2.20 303.65,6.95 304.80,13.60"/>
    </edge>
    <edge id=":n10_17" function="internal">
        <lane id=":n10_17_0" index="0" speed="10.36" length="16.53" shape="294.13,-0.00 297.80,2.20 300.65,6.95 301.60,13.60"/>
    </edge>
    <edge id=":n10_18" function="internal">
        <lane id=":n10_18_0" index="0" speed="3.65" length="2.34" shape="288.00,0.00 287.60,0.80 286.40,1.60"/>
    </edge>
    <edge id=":n11_0" function="internal">
        <lane id=":n11_0_0" index="0" speed="6.51" length="9.03" shape="292.00,313.60 291.65,311.15 290.60,309.40 288.85,308.35 286.40,308.00"/>
    </edge>
    <edge id=":n11_1" function="internal">
        <lane id=":n11_1_0" index="0" speed="13.89" length="27.20" shape="292.00,313.60 292.00,286.40"/>
        <lane id=":n11_1_1" index="1" speed="13.89" length="27.20" shape="295.20,313.60 295.20,286.40"/>
        <lane id=":n11_1_2" index="2" speed="13.89" length="27.20" shape="298.40,313.60 298.40,286.40"/>
    </edge>
    <edge id=":n11_4" function="internal">
        <lane id=":n11_4_0" index="0" speed="10.36" length="7.98" shape="298.40,313.60 299.35,306.95 300.00,305.87"/>
    </edge>
    <edge id=":n11_5" function="internal">
        <lane id=":n11_5_0" index="0" speed="3.65" length="2.34" shape="298.40,313.60 299.20,312.40 300.00,312.00"/>
    </edge>
    <edge id=":n11_24" function="internal">
        <lane id=":n11_24_0" index="0" speed="10.36" length="16.53" shape="300.00,305.87 302.20,302.20 306.95,299.35 313.60,298.40"/>
    </edge>
    <edge id=":n11_25" function="internal">
        <lane id=":n11_25_0" index="0" speed="3.65" length="2.34" shape="300.00,312.00 300.80,312.40 301.60,313.60"/>
    </edge>
    <edge id=":n11_6" function="internal">
        <lane id=":n11_6_0" index="0" speed="6.51" length="9.03" shape="313.60,308.00 311.15,308.35 309.40,309.40 308.35,311.15 308.00,313.60"/>
    </edge>
    <edge id=":n11_7" function="internal">
        <lane id=":n11_7_0" index="0" speed="13.89" length="27.20" shape="313.60,308.00 286.40,308.00"/>
        <lane id=":n11_7_1" index="1" speed="13.89" length="27.20" shape="313.60,304.80 286.40,304.80"/>
        <lane id=":n11_7_2" index="2" speed="13.89" length="27.20" shape="313.60,301.60 286.40,301.60"/>
    </edge>
    <edge id=":n11_10" function="internal">
        <lane id=":n11_10_0" index="0" speed="10.36" length="24.51" shape="313.60,301.60 306.95,300.65 302.20,297.80 299.35,293.05 298.40,286.40"/>
    </edge>
    <edge id=":n11_11" function="internal">
        <lane id=":n11_11_0" index="0" speed="3.65" length="4.67" shape="313.60,301.60 312.40,300.80 312.00,300.00 312.40,299.20 313.60,298.40"/>
    </edge>
    <edge id=":n11_12" function="internal">
        <lane id=":n11_12_0" index="0" speed="6.51" length="9.03" shape="308.00,286.40 308.35,288.85 309.40,290.60 311.15,291.65 313.60,292.00"/>
    </edge>
    <edge id=":n11_13" function="internal">
        <lane id=":n11_13_0" index="0" speed="13.89" length="27.20" shape="308.00,286.40 308.00,313.60"/>
        <lane id=":n11_13_1" index="1" speed="13.89" length="27.20" shape="304.80,286.40 304.80,313.60"/>
        <lane id=":n11_13_2" index="2" speed="13.89" length="27.20" shape="301.60,286.40 301.60,313.60"/>
    </edge>
    <edge id=":n11_16" function="internal">
        <lane id=":n11_16_0" index="0" speed="10.36" length="7.98" shape="301.60,286.40 300.65,293.05 300.00,294.13"/>
    </edge>
    <edge id=":n11_17" function="internal">
        <lane id=":n11_17_0" index="0" speed="3.65" length="2.34" shape="301.60,286.40 300.80,287.60 300.00,288.00"/>
    </edge>
    <edge id=":n11_26" function="internal">
        <lane id=":n11_26_0" index="0" speed="10.36" length="16.53" shape="300.00,294.13 297.80,297.80 293.05,300.65 286.40,301.60"/>
    </edge>
    <edge id=":n11_27" function="internal">
        <lane id=":n11_27_0" index="0" speed="3.65" length="2.34" shape="300.00,288.00 299.20,287.60 298.40,286.40"/>
    </edge>
    <edge id=":n11_18" function="internal">
        <lane id=":n11_18_0" index="0" speed="6.51" length="9.03" shape="286.40,292.00 288.85,291.65 290.60,290.60 291.65,288.85 292.00,286.40"/>
    </edge>
    <edge id=":n11_19" function="internal">
        <lane id=":n11_19_0" index="0" speed="13.89" length="27.20" shape="286.40,292.00 313.60,292.00"/>
        <lane id=":n11_19_1" index="1" speed="13.89" length="27.20" shape="286.40,295.20 313.60,295.20"/>
        <lane id=":n11_19_2" index="2" speed="13.89" length="27.20" shape="286.40,298.40 313.60,298.40"/>
    </edge>
    <edge id=":n11_22" function="internal">
        <lane id=":n11_22_0" index="0" speed="10.36" length="24.51" shape="286.40,298.40 293.05,299.35 297.80,302.20 300.65,306.95 301.60,313.60"/>
    </edge>
    <edge id=":n11_23" function="internal">
        <lane id=":n11_23_0" index="0" speed="3.65" length="4.67" shape="286.40,298.40 287.60,299.20 288.00,300.00 287.60,300.80 286.40,301.60"/>
    </edge>
    <edge id=":n12_0" function="internal">
        <lane id=":n12_0_0" index="0" speed="6.51" length="9.03" shape="292.00,613.60 291.65,611.15 290.60,609.40 288.85,608.35 286.40,608.00"/>
    </edge>
    <edge id=":n12_1" function="internal">
        <lane id=":n12_1_0" index="0" speed="13.89" length="27.20" shape="292.00,613.60 292.00,586.40"/>
        <lane id=":n12_1_1" index="1" speed="13.89" length="27.20" shape="295.20,613.60 295.20,586.40"/>
        <lane id=":n12_1_2" index="2" speed="13.89" length="27.20" shape="298.40,613.60 298.40,586.40"/>
    </edge>
    <edge id=":n12_4" function="internal">
        <lane id=":n12_4_0" index="0" speed="10.36" length="7.98" shape="298.40,613.60 299.35,606.95 300.00,605.87"/>
    </edge>
    <edge id=":n12_5" function="internal">
        <lane id=":n12_5_0" index="0" speed="3.65" length="2.34" shape="298.40,613.60 299.20,612.40 300.00,612.00"/>
    </edge>
    <edge id=":n12_24" function="internal">
        <lane id=":n12_24_0" index="0" speed="10.36" length="16.53" shape="300.00,605.87 302.20,602.20 306.95,599.35 313.60,598.40"/>
    </edge>
    <edge id=":n12_25" function="internal">
        <lane id=":n12_25_0" index="0" speed="3.65" length="2.34" shape="300.00,612.00 300.80,612.40 301.60,613.60"/>
    </edge>
    <edge id=":n12_6" function="internal">
        <lane id=":n12_6_0" index="0" speed="6.51" length="9.03" shape="313.60,608.00 311.15,608.35 309.40,609.40 308.35,611.15 308.00,613.60"/>
    </edge>
    <edge id=":n12_7" function="internal">
        <lane id=":n12_7_0" index="0" speed="13.89" length="27.20" shape="313.60,608.00 286.40,608.00"/>
        <lane id=":n12_7_1" index="1" speed="13.89" length="27.20" shape="313.60,604.80 286.40,604.80"/>
        <lane id=":n12_7_2" index="2" speed="13.89" length="27.20" shape="313.60,601.60 286.40,601.60"/>
    </edge>
    <edge id=":n12_10" function="internal">
        <lane id=":n12_10_0" index="0" speed="10.36" length="24.51" shape="313.60,601.60 306.95,600.65 302.20,597.80 299.35,593.05 298.40,586.40"/>
    </edge>
    <edge id=":n12_11" function="internal">
        <lane id=":n12_11_0" index="0" speed="3.65" length="4.67" shape="313.60,601.60 312.40,600.80 312.00,600.00 312.40,599.20 313.60,598.40"/>
    </edge>
    <edge id=":n12_12" function="internal">
        <lane id=":n12_12_0" index="0" speed="6.51" length="9.03" shape="308.00,586.40 308.35,588.85 309.40,590.60 311.15,591.65 313.60,592.00"/>
    </edge>
    <edge id=":n12_13" function="internal">
        <lane id=":n12_13_0" index="0" speed="13.89" length="27.20" shape="308.00,586.40 308.00,613.60"/>
        <lane id=":n12_13_1" index="1" speed="13.89" length="27.20" shape="304.80,586.40 304.80,613.60"/>
        <lane id=":n12_13_2" index="2" speed="13.89" length="27.20" shape="301.60,586.40 301.60,613.60"/>
    </edge>
    <edge id=":n12_16" function="internal">
        <lane id=":n12_16_0" index="0" speed="10.36" length="7.98" shape="301.60,586.40 300.65,593.05 300.00,594.13"/>
    </edge>
    <edge id=":n12_17" function="internal">
        <lane id=":n12_17_0" index="0" speed="3.65" length="2.34" shape="301.60,586.40 300.80,587.60 300.00,588.00"/>
    </edge>
    <edge id=":n12_26" function="internal">
        <lane id=":n12_26_0" index="0" speed="10.36" length="16.53" shape="300.00,594.13 297.80,597.80 293.05,600.65 286.40,601.60"/>
    </edge>
    <edge id=":n12_27" function="internal">
        <lane id=":n12_27_0" index="0" speed="3.65" length="2.34" shape="300.00,588.00 299.20,587.60 298.40,586.40"/>
    </edge>
    <edge id=":n12_18" function="internal">
        <lane id=":n12_18_0" index="0" speed="6.51" length="9.03" shape="286.40,592.00 288.85,591.65 290.60,590.60 291.65,588.85 292.00,586.40"/>
    </edge>
    <edge id=":n12_19" function="internal">
        <lane id=":n12_19_0" index="0" speed="13.89" length="27.20" shape="286.40,592.00 313.60,592.00"/>
        <lane id=":n12_19_1" index="1" speed="13.89" length="27.20" shape="286.40,595.20 313.60,595.20"/>
        <lane id=":n12_19_2" index="2" speed="13.89" length="27.20" shape="286.40,598.40 313.60,598.40"/>
    </edge>
    <edge id=":n12_22" function="internal">
        <lane id=":n12_22_0" index="0" speed="10.36" length="24.51" shape="286.40,598.40 293.05,599.35 297.80,602.20 300.65,606.95 301.60,613.60"/>
    </edge>
    <edge id=":n12_23" function="internal">
        <lane id=":n12_23_0" index="0" speed="3.65" length="4.67" shape="286.40,598.40 287.60,599.20 288.00,600.00 287.60,600.80 286.40,601.60"/>
    </edge>
    <edge id=":n13_0" function="internal">
        <lane id=":n13_0_0" index="0" speed="6.51" length="9.03" shape="292.00,913.60 291.65,911.15 290.60,909.40 288.85,908.35 286.40,908.00"/>
    </edge>
    <edge id=":n13_1" function="internal">
        <lane id=":n13_1_0" index="0" speed="13.89" length="27.20" shape="292.00,913.60 292.00,886.40"/>
        <lane id=":n13_1_1" index="1" speed="13.89" length="27.20" shape="295.20,913.60 295.20,886.40"/>
        <lane id=":n13_1_2" index="2" speed="13.89" length="27.20" shape="298.40,913.60 298.40,886.40"/>
    </edge>
    <edge id=":n13_4" function="internal">
        <lane id=":n13_4_0" index="0" speed="10.36" length="7.98" shape="298.40,913.60 299.35,906.95 300.00,905.87"/>
    </edge>
    <edge id=":n13_5" function="internal">
        <lane id=":n13_5_0" index="0" speed="3.65" length="2.34" shape="298.40,913.60 299.20,912.40 300.00,912.00"/>
    </edge>
    <edge id=":n13_24" function="internal">
        <lane id=":n13_24_0" index="0" speed="10.36" length="16.53" shape="300.00,905.87 302.20,902.20 306.95,899.35 313.60,898.40"/>
    </edge>
    <edge id=":n13_25" function="internal">
        <lane id=":n13_25_0" index="0" speed="3.65" length="2.34" shape="300.00,912.00 300.80,912.40 301.60,913.60"/>
    </edge>
    <edge id=":n13_6" function="internal">
        <lane id=":n13_6_0" index="0" speed="6.51" length="9.03" shape="313.60,908.00 311.15,908.35 309.40,909.40 308.35,911.15 308.00,913.60"/>
    </edge>
    <edge id=":n13_7" function="internal">
        <lane id=":n13_7_0" index="0" speed="13.89" length="27.20" shape="313.60,908.00 286.40,908.00"/>