<?xml version="1.0" encoding="UTF-8"?>

<!-- generated on Mon 21 Nov 2022 06:59:18 PM -03 by Eclipse SUMO netedit Version 1.8.0
<configuration xmlns:xsi="http://www.w3.org/2001/XMLSchema-instance" xsi:noNamespaceSchemaLocation="http://sumo.dlr.de/xsd/netconvertConfiguration.xsd">

    <input>
        <sumo-net-file value="/home/joao/USP/InterSCity/vanet-emergency-system/examples/veins/first.net.xml"/>
    </input>

    <output>
        <output-file value="/home/joao/USP/InterSCity/vanet-emergency-system/examples/veins/first.net.xml"/>
    </output>

    <processing>
        <geometry.min-radius.fix.railways value="false"/>
        <geometry.max-grade.fix value="false"/>
        <offset.disable-normalization value="true"/>
        <lefthand value="false"/>
    </processing>

    <junctions>
        <no-turnarounds value="true"/>
        <junctions.corner-detail value="5"/>
        <junctions.limit-turn-speed value="5.5"/>
        <rectangular-lane-cut value="false"/>
    </junctions>

    <pedestrian>
        <walkingareas value="false"/>
    </pedestrian>

    <netedit>
        <route-files value="/home/joao/USP/InterSCity/vanet-emergency-system/examples/veins/first.rou.xml"/>
    </netedit>

    <report>
        <aggregate-warnings value="5"/>
    </report>

</configuration>
-->

<routes xmlns:xsi="http://www.w3.org/2001/XMLSchema-instance" xsi:noNamespaceSchemaLocation="http://sumo.dlr.de/xsd/routes_file.xsd">
    <vType id="emergency" maxSpeed="70.00" speedFactor="normc(2.00,0.00)" vClass="emergency" color="white" accel="3"/>
    <vType id="normal" maxSpeed="10.00" speedFactor="normc(2.00,0.00)" vClass="ignoring" color="blue" accel="3"/>
    
    <route edges="e23-33 e33-43" color="yellow" id="route_0"/>
    <route edges="e53-43 e43-33 e33-23" color="yellow" id="route_1"/>
    <route edges="e00-10 e10-20 e20-21 e21-22 e22-23 e23-33" color="yellow" id="route_2"/>
    
    
    <vehicle id="vehicle_0" depart="0.00" route="route_0"/>
    <vehicle id="vehicle_1" type="normal" depart="1.00" route="route_1" departLane="free"/>
    <vehicle id="vehicle_2" type="normal" depart="1.15" route="route_1" departLane="free"/>
    <vehicle id="vehicle_3" type="normal" depart="1.30" route="route_1" departLane="free"/>
</routes>
