<?xml version="1.0" encoding="UTF-8"?>
<!-- generated on 2023-03-15 09:51:16.936347 by findAllRoutes.py v1.8.0-0000000000
  options: -o test.rou -n first.net.xml -s e00-10 -t e10-20
-->
<routes xmlns:xsi="http://www.w3.org/2001/XMLSchema-instance" xsi:noNamespaceSchemaLocation="http://sumo.dlr.de/xsd/routes_file.xsd">
