<?xml version="1.0" encoding="UTF-8"?>
<!-- generated on 2021-06-22 15:51:45.712852 by $Id$ v1_8_0+0044-4820708f3d
  options: -n /home/user/Applications/sumo/tools/_Toronto2/osm.net.xml -s 0 -e 340 -o /data/Documents/Year4/3p99/input/Toronto/seed-0/340/Toronto.trips.xml
-->
<routes xmlns:xsi="http://www.w3.org/2001/XMLSchema-instance" xsi:noNamespaceSchemaLocation="http://sumo.dlr.de/xsd/routes_file.xsd">
    <trip id="0" depart="0.00" from="42965086" to="42785409#0"/>
    <trip id="1" depart="1.00" from="-44164882#6" to="-42785408#1"/>
    <trip id="2" depart="2.00" from="22780706#0" to="-44164736#1"/>
    <trip id="3" depart="3.00" from="42785412#8" to="-42785422#4"/>
    <trip id="4" depart="4.00" from="10153829#0" to="24154991#5"/>
    <trip id="5" depart="5.00" from="43332243#0" to="214366954#7"/>
    <trip id="6" depart="6.00" from="-42785415#0" to="42785406#0"/>
    <trip id="7" depart="7.00" from="24155234" to="-42785404#0"/>
    <trip id="8" depart="8.00" from="43332245#1" to="504872401#0"/>
    <trip id="9" depart="9.00" from="42785422#2" to="43332242#0"/>
    <trip id="10" depart="10.00" from="-42785552" to="42705135#0"/>
    <trip id="11" depart="11.00" from="43332236#1" to="3979577#0"/>
    <trip id="12" depart="12.00" from="-82696480#3" to="-24154991#1"/>
    <trip id="13" depart="13.00" from="-44164904#1" to="252994870"/>
    <trip id="14" depart="14.00" from="435756257#4" to="44166989#0"/>
    <trip id="15" depart="15.00" from="10153830#0" to="43331305#3"/>
    <trip id="16" depart="16.00" from="-42785412#6" to="42785536#1"/>
    <trip id="17" depart="17.00" from="24154719#3" to="-214366560"/>
    <trip id="18" depart="18.00" from="41843762#1" to="-435756598"/>
    <trip id="19" depart="19.00" from="42785548" to="38518768#0"/>
    <trip id="20" depart="20.00" from="-10153830#1" to="188692300"/>
    <trip id="21" depart="21.00" from="43131988" to="-42784502#3"/>
    <trip id="22" depart="22.00" from="-42965087#0" to="43331311#0"/>
    <trip id="23" depart="23.00" from="-41843701" to="24154892#4"/>
    <trip id="24" depart="24.00" from="-42785404#5" to="44166989#1"/>
    <trip id="25" depart="25.00" from="42785415#0" to="-44166987"/>
    <trip id="26" depart="26.00" from="-24154927#1" to="-42785550#0"/>
    <trip id="27" depart="27.00" from="226669866#0" to="44164822#1"/>
    <trip id="28" depart="28.00" from="-24155053#0" to="24154740#0"/>
    <trip id="29" depart="29.00" from="41843702#0" to="24154719#2"/>
    <trip id="30" depart="30.00" from="42785538" to="24153478#0"/>
    <trip id="31" depart="31.00" from="44164904#0" to="24155057#3"/>
    <trip id="32" depart="32.00" from="24154991#3" to="-44164905#1"/>
    <trip id="33" depart="33.00" from="24155039#0" to="-43332237#0"/>
    <trip id="34" depart="34.00" from="24154927#1" to="-42785414#2"/>
    <trip id="35" depart="35.00" from="-41843700#2" to="-37407766"/>
    <trip id="36" depart="36.00" from="24155060#1" to="35674241#1"/>
    <trip id="37" depart="37.00" from="10153829#0" to="-24154927#1"/>
    <trip id="38" depart="38.00" from="42785403#1" to="43331544#0"/>
    <trip id="39" depart="39.00" from="44164736#0" to="42965089"/>
    <trip id="40" depart="40.00" from="43332236#1" to="44164767#0"/>
    <trip id="41" depart="41.00" from="24153489#0" to="-43332242#2"/>
    <trip id="42" depart="42.00" from="41843701" to="-42785412#7"/>
    <trip id="43" depart="43.00" from="42785424#2" to="42965097"/>
    <trip id="44" depart="44.00" from="43332232#0" to="24155037#4"/>
    <trip id="45" depart="45.00" from="44164882#5" to="24154975#9"/>
    <trip id="46" depart="46.00" from="-44526819" to="37106381#0"/>
    <trip id="47" depart="47.00" from="82696480#1" to="44164734#1"/>
    <trip id="48" depart="48.00" from="42785414#0" to="-24154892#3"/>
    <trip id="49" depart="49.00" from="24155060#1" to="124818961"/>
    <trip id="50" depart="50.00" from="25517481#1" to="42965091"/>
    <trip id="51" depart="51.00" from="-42785406#2" to="42705143"/>
    <trip id="52" depart="52.00" from="-24158198#1" to="-41843762#3"/>
    <trip id="53" depart="53.00" from="42785414#10" to="-42786489"/>
    <trip id="54" depart="54.00" from="42785540" to="-24154991#1"/>
    <trip id="55" depart="55.00" from="-35599340#9" to="41843704#0"/>
    <trip id="56" depart="56.00" from="-23334941#2" to="24154975#2"/>
    <trip id="57" depart="57.00" from="43332245#1" to="23334948#1"/>
    <trip id="58" depart="58.00" from="38518768#0" to="-223081729#1"/>
    <trip id="59" depart="59.00" from="26596145#1" to="24155226"/>
    <trip id="60" depart="60.00" from="24154970" to="-43332240#2"/>
    <trip id="61" depart="61.00" from="-43332232#1" to="458071278#0"/>
    <trip id="62" depart="62.00" from="-22780712#0" to="-214366954#4"/>
    <trip id="63" depart="63.00" from="44164887#0" to="-371515502"/>
    <trip id="64" depart="64.00" from="-25517480#2" to="-41843704#2"/>
    <trip id="65" depart="65.00" from="42785414#8" to="44164880#0"/>
    <trip id="66" depart="66.00" from="-214366954#6" to="-44164882#0"/>
    <trip id="67" depart="67.00" from="-24155039#3" to="-42785409#3"/>
    <trip id="68" depart="68.00" from="-42705136#1" to="35599342#10"/>
    <trip id="69" depart="69.00" from="-43331309#1" to="-35674242"/>
    <trip id="70" depart="70.00" from="214366956#0" to="-23334824#1"/>
    <trip id="71" depart="71.00" from="-24155039#1" to="546851777"/>
    <trip id="72" depart="72.00" from="-41843710#1" to="-43331306"/>
    <trip id="73" depart="73.00" from="42141128#1" to="42965087#0"/>
    <trip id="74" depart="74.00" from="439504241#1" to="-35599342#13"/>
    <trip id="75" depart="75.00" from="37106381#0" to="44166989#0"/>
    <trip id="76" depart="76.00" from="-24153560#2" to="38518803#0"/>
    <trip id="77" depart="77.00" from="42965087#0" to="-42965091"/>
    <trip id="78" depart="78.00" from="-42785411#3" to="24155052#0"/>
    <trip id="79" depart="79.00" from="-44166989#2" to="-35599342#9"/>
    <trip id="80" depart="80.00" from="-82696480#3" to="-44164817#0"/>
    <trip id="81" depart="81.00" from="24154904#0" to="223081729#0"/>
    <trip id="82" depart="82.00" from="-42785555" to="-43331305#6"/>
    <trip id="83" depart="83.00" from="42786479" to="-42785404#10"/>
    <trip id="84" depart="84.00" from="24154859#0" to="-188692300"/>
    <trip id="85" depart="85.00" from="42705135#0" to="-42965084"/>
    <trip id="86" depart="86.00" from="-23334943#1" to="-42785413#4"/>
    <trip id="87" depart="87.00" from="-42785404#8" to="44164883#6"/>
    <trip id="88" depart="88.00" from="-43331313#2" to="-42785414#10"/>
    <trip id="89" depart="89.00" from="-43331545#2" to="44164882#7"/>
    <trip id="90" depart="90.00" from="25795200#0" to="26596145#0"/>
    <trip id="91" depart="91.00" from="41843710#1" to="-43332238#1"/>
    <trip id="92" depart="92.00" from="-44164881#1" to="35599342#3"/>
    <trip id="93" depart="93.00" from="-10153830#1" to="-38518803#2"/>
    <trip id="94" depart="94.00" from="-42965100" to="-42784219#0"/>
    <trip id="95" depart="95.00" from="273759957#0" to="-43332228#4"/>
    <trip id="96" depart="96.00" from="43331311#0" to="24154904#0"/>
    <trip id="97" depart="97.00" from="-44164881#1" to="-439504242"/>
    <trip id="98" depart="98.00" from="41843698" to="-44164822#1"/>
    <trip id="99" depart="99.00" from="35599342#3" to="-23334941#2"/>
    <trip id="100" depart="100.00" from="-44166991#3" to="-42785408#1"/>
    <trip id="101" depart="101.00" from="-35599342#7" to="23334936#0"/>
    <trip id="102" depart="102.00" from="162147163#0" to="24154862#0"/>
    <trip id="103" depart="103.00" from="42785401" to="43332227#0"/>
    <trip id="104" depart="104.00" from="214366954#0" to="-42785541#2"/>
    <trip id="105" depart="105.00" from="-82148152" to="42785541#0"/>
    <trip id="106" depart="106.00" from="43331310#0" to="42785544"/>
    <trip id="107" depart="107.00" from="-41843699#3" to="8812128#0"/>
    <trip id="108" depart="108.00" from="25795200#0" to="-24154904#3"/>
    <trip id="109" depart="109.00" from="42141124#3" to="504874504"/>
    <trip id="110" depart="110.00" from="-44164817#4" to="38518803#3"/>
    <trip id="111" depart="111.00" from="-42786476#4" to="-41843707#0"/>
    <trip id="112" depart="112.00" from="41843712#0" to="-10153830#3"/>
    <trip id="113" depart="113.00" from="42785546#0" to="23334937#0"/>
    <trip id="114" depart="114.00" from="-24155037#2" to="-24155052#2"/>
    <trip id="115" depart="115.00" from="35599340#1" to="43331314"/>
    <trip id="116" depart="116.00" from="-42785414#7" to="456562064#2"/>
    <trip id="117" depart="117.00" from="-24155039#1" to="42965102"/>
    <trip id="118" depart="118.00" from="-44164765#1" to="-24154888#3"/>
    <trip id="119" depart="119.00" from="-42785414#11" to="-44166991#1"/>
    <trip id="120" depart="120.00" from="42785413#9" to="43131702"/>
    <trip id="121" depart="121.00" from="-279419697" to="23334830#1"/>
    <trip id="122" depart="122.00" from="35599340#3" to="-42965130#0"/>
    <trip id="123" depart="123.00" from="43331306" to="-42785413#10"/>
    <trip id="124" depart="124.00" from="-214366954#11" to="-23334830#2"/>
    <trip id="125" depart="125.00" from="38518768#0" to="24154819#3"/>
    <trip id="126" depart="126.00" from="44164882#2" to="44164880#1"/>
    <trip id="127" depart="127.00" from="43332245#1" to="-23334836#2"/>
    <trip id="128" depart="128.00" from="42784502#0" to="41843707#1"/>
    <trip id="129" depart="129.00" from="35599341#5" to="42141124#0"/>
    <trip id="130" depart="130.00" from="43332238#0" to="35599340#7"/>
    <trip id="131" depart="131.00" from="-43332236#1" to="23334956#0"/>
    <trip id="132" depart="132.00" from="-42141124#4" to="24155037#0"/>
    <trip id="133" depart="133.00" from="-124818964#3" to="-31483070#0"/>
    <trip id="134" depart="134.00" from="-42965099#1" to="42785414#5"/>
    <trip id="135" depart="135.00" from="41843762#0" to="-42965087#1"/>
    <trip id="136" depart="136.00" from="24158207#0" to="-23334830#2"/>
    <trip id="137" depart="137.00" from="-35674242" to="491584567"/>
    <trip id="138" depart="138.00" from="-42785422#4" to="-435756257#1"/>
    <trip id="139" depart="139.00" from="24154719#3" to="-42785414#7"/>
    <trip id="140" depart="140.00" from="10153830#2" to="-42784219#2"/>
    <trip id="141" depart="141.00" from="-23334946" to="-35674241#1"/>
    <trip id="142" depart="142.00" from="23334930#0" to="-24154737#1"/>
    <trip id="143" depart="143.00" from="-44164820#0" to="-42786476#1"/>
    <trip id="144" depart="144.00" from="-44164881#1" to="-24154991#0"/>
    <trip id="145" depart="145.00" from="43332243#0" to="-82148153"/>
    <trip id="146" depart="146.00" from="42965081" to="44526819"/>
    <trip id="147" depart="147.00" from="-43131703" to="-8812128#1"/>
    <trip id="148" depart="148.00" from="3979615#5" to="-44164882#1"/>
    <trip id="149" depart="149.00" from="-42785545#1" to="42784219#1"/>
    <trip id="150" depart="150.00" from="43332231#0" to="44164736#3"/>
    <trip id="151" depart="151.00" from="25517480#0" to="-43332227#2"/>
    <trip id="152" depart="152.00" from="44526817#0" to="35599340#3"/>
    <trip id="153" depart="153.00" from="-24154728#1" to="-24154907#4"/>
    <trip id="154" depart="154.00" from="42784502#1" to="-24153501"/>
    <trip id="155" depart="155.00" from="-124818962#2" to="-43332245#0"/>
    <trip id="156" depart="156.00" from="23334836#0" to="-44166988"/>
    <trip id="157" depart="157.00" from="162327465" to="24154991#6"/>
    <trip id="158" depart="158.00" from="38518764#0" to="-44164880#1"/>
    <trip id="159" depart="159.00" from="-43332228#4" to="546851777"/>
    <trip id="160" depart="160.00" from="-42785412#7" to="42785413#10"/>
    <trip id="161" depart="161.00" from="-44164888#1" to="-43331306"/>
    <trip id="162" depart="162.00" from="-24154719#2" to="43331305#0"/>
    <trip id="163" depart="163.00" from="41843698" to="43332243#0"/>
    <trip id="164" depart="164.00" from="-44526820" to="38518803#1"/>
    <trip id="165" depart="165.00" from="-24158263#1" to="-435756259"/>
    <trip id="166" depart="166.00" from="-42141124#4" to="-23334836#2"/>
    <trip id="167" depart="167.00" from="44164882#3" to="-41843710#1"/>
    <trip id="168" depart="168.00" from="-35599340#9" to="-3979576#3"/>
    <trip id="169" depart="169.00" from="-43332238#1" to="24154719#0"/>
    <trip id="170" depart="170.00" from="-35599342#0" to="552490264#2"/>
    <trip id="171" depart="171.00" from="486767894" to="-26826710"/>
    <trip id="172" depart="172.00" from="-44164820#4" to="38518803#5"/>
    <trip id="173" depart="173.00" from="43331313#0" to="214366558"/>
    <trip id="174" depart="174.00" from="439081516" to="-42785551"/>
    <trip id="175" depart="175.00" from="214366954#2" to="214366954#0"/>
    <trip id="176" depart="176.00" from="35674247#0" to="-3979615#5"/>
    <trip id="177" depart="177.00" from="24155057#3" to="-41843762#1"/>
    <trip id="178" depart="178.00" from="-42965144" to="44164905#2"/>
    <trip id="179" depart="179.00" from="43332236#1" to="42785549"/>
    <trip id="180" depart="180.00" from="-22780711" to="-26826710"/>
    <trip id="181" depart="181.00" from="-42785412#2" to="42785414#0"/>
    <trip id="182" depart="182.00" from="42965083" to="24154991#4"/>
    <trip id="183" depart="183.00" from="41843712#0" to="42785539"/>
    <trip id="184" depart="184.00" from="-24154734" to="-24154907#4"/>
    <trip id="185" depart="185.00" from="43331305#0" to="-23334824#1"/>
    <trip id="186" depart="186.00" from="-42784502#0" to="-23334830#2"/>
    <trip id="187" depart="187.00" from="-214366563" to="42965090#2"/>
    <trip id="188" depart="188.00" from="-42965090#2" to="-35599340#2"/>
    <trip id="189" depart="189.00" from="-35599341#4" to="35674241#0"/>
    <trip id="190" depart="190.00" from="44166988" to="214366954#7"/>
    <trip id="191" depart="191.00" from="43332237#1" to="214366954#2"/>
    <trip id="192" depart="192.00" from="24154915#0" to="38518803#3"/>
    <trip id="193" depart="193.00" from="42785415#3" to="42785408#0"/>
    <trip id="194" depart="194.00" from="552490264#2" to="42785403#1"/>
    <trip id="195" depart="195.00" from="43332239#0" to="-41843700#2"/>
    <trip id="196" depart="196.00" from="23334952" to="24155052#2"/>
    <trip id="197" depart="197.00" from="42785549" to="10153830#2"/>
    <trip id="198" depart="198.00" from="42785413#7" to="-43332238#1"/>
    <trip id="199" depart="199.00" from="24154991#1" to="42965099#0"/>
    <trip id="200" depart="200.00" from="42785414#3" to="35674241#1"/>
    <trip id="201" depart="201.00" from="-10153815#2" to="-35674247#1"/>
    <trip id="202" depart="202.00" from="223082355" to="-42785404#6"/>
    <trip id="203" depart="203.00" from="-24154728#1" to="43131700"/>
    <trip id="204" depart="204.00" from="44164880#2" to="-42785422#4"/>
    <trip id="205" depart="205.00" from="-44164822#1" to="42785541#1"/>
    <trip id="206" depart="206.00" from="-24154719#0" to="35599341#0"/>
    <trip id="207" depart="207.00" from="-256520229#7" to="-42785414#1"/>
    <trip id="208" depart="208.00" from="42785552" to="-23334954#1"/>
    <trip id="209" depart="209.00" from="-22780711" to="-44164822#1"/>
    <trip id="210" depart="210.00" from="214366560" to="43331305#0"/>
    <trip id="211" depart="211.00" from="41843711#0" to="38518800#0"/>
    <trip id="212" depart="212.00" from="-35599342#0" to="504874504"/>
    <trip id="213" depart="213.00" from="-44164825#1" to="25499275"/>
    <trip id="214" depart="214.00" from="-435756257#3" to="-23334941#2"/>
    <trip id="215" depart="215.00" from="-82696480#1" to="-31483070#0"/>
    <trip id="216" depart="216.00" from="-22780705#1" to="25517481#1"/>
    <trip id="217" depart="217.00" from="25517481#1" to="-24154991#7"/>
    <trip id="218" depart="218.00" from="24154728#0" to="-42965130#0"/>
    <trip id="219" depart="219.00" from="-43332245#0" to="42785413#10"/>
    <trip id="220" depart="220.00" from="214366554" to="43331547#0"/>
    <trip id="221" depart="221.00" from="24155057#3" to="-504874504"/>
    <trip id="222" depart="222.00" from="256520229#8" to="-42965087#1"/>
    <trip id="223" depart="223.00" from="-25517480#2" to="3979576#3"/>
    <trip id="224" depart="224.00" from="24158263#0" to="42785414#2"/>
    <trip id="225" depart="225.00" from="-256520229#6" to="435757768#0"/>
    <trip id="226" depart="226.00" from="42785414#6" to="44164734#1"/>
    <trip id="227" depart="227.00" from="43331306" to="38518808#0"/>
    <trip id="228" depart="228.00" from="42785422#2" to="22780712#1"/>
    <trip id="229" depart="229.00" from="42785413#0" to="-38518772#1"/>
    <trip id="230" depart="230.00" from="42785412#6" to="-44164905#0"/>
    <trip id="231" depart="231.00" from="42785403#0" to="-44526817#1"/>
    <trip id="232" depart="232.00" from="42785413#6" to="-24154859#2"/>
    <trip id="233" depart="233.00" from="-23334934#1" to="44164823#1"/>
    <trip id="234" depart="234.00" from="124818964#0" to="43332240#0"/>
    <trip id="235" depart="235.00" from="44164882#0" to="38518764#0"/>
    <trip id="236" depart="236.00" from="24154910#1" to="-41843710#1"/>
    <trip id="237" depart="237.00" from="-24154991#5" to="42785550#1"/>
    <trip id="238" depart="238.00" from="43332227#0" to="42785413#5"/>
    <trip id="239" depart="239.00" from="3979615#2" to="-44164823#1"/>
    <trip id="240" depart="240.00" from="-42785548" to="-24155043#1"/>
    <trip id="241" depart="241.00" from="-44164883#4" to="24154892#0"/>
    <trip id="242" depart="242.00" from="44164736#0" to="44164823#2"/>
    <trip id="243" depart="243.00" from="-44164882#0" to="-24154991#0"/>
    <trip id="244" depart="244.00" from="42785411#5" to="42784219#1"/>
    <trip id="245" depart="245.00" from="-226669866#2" to="-44164906#2"/>
    <trip id="246" depart="246.00" from="38518800#0" to="-226669866#1"/>
    <trip id="247" depart="247.00" from="439504242" to="44164905#1"/>
    <trip id="248" depart="248.00" from="42137385#0" to="-24154883#0"/>
    <trip id="249" depart="249.00" from="-24154859#2" to="-43331307#2"/>
    <trip id="250" depart="250.00" from="-226669866#1" to="-42965130#1"/>
    <trip id="251" depart="251.00" from="-162327176" to="44526817#0"/>
    <trip id="252" depart="252.00" from="42785541#2" to="-24154737#1"/>
    <trip id="253" depart="253.00" from="43332228#3" to="-41843702#3"/>
    <trip id="254" depart="254.00" from="-42141122#1" to="38518801#0"/>
    <trip id="255" depart="255.00" from="44164823#0" to="-24155057#2"/>
    <trip id="256" depart="256.00" from="-124818962#2" to="-43331545#1"/>
    <trip id="257" depart="257.00" from="-214366954#9" to="24155060#1"/>
    <trip id="258" depart="258.00" from="42965101" to="-37407767#2"/>
    <trip id="259" depart="259.00" from="-24155057#3" to="-42965099#1"/>
    <trip id="260" depart="260.00" from="44164885#0" to="-24155230"/>
    <trip id="261" depart="261.00" from="44164905#2" to="-43331312"/>
    <trip id="262" depart="262.00" from="-827855158#1" to="-42785414#6"/>
    <trip id="263" depart="263.00" from="44164822#1" to="44164903#0"/>
    <trip id="264" depart="264.00" from="26826710" to="-37106381#1"/>
    <trip id="265" depart="265.00" from="7662746#0" to="-24154991#3"/>
    <trip id="266" depart="266.00" from="24154975#4" to="-35599335"/>
    <trip id="267" depart="267.00" from="43332236#0" to="44164882#6"/>
    <trip id="268" depart="268.00" from="42785415#2" to="-42785546#1"/>
    <trip id="269" depart="269.00" from="-42785406#2" to="42785405#1"/>
    <trip id="270" depart="270.00" from="-42785424#3" to="-44164823#1"/>
    <trip id="271" depart="271.00" from="-23334943#1" to="-24155233"/>
    <trip id="272" depart="272.00" from="-214366954#2" to="-24154871#2"/>
    <trip id="273" depart="273.00" from="-24154871#2" to="-44164823#2"/>
    <trip id="274" depart="274.00" from="24154740#0" to="42784502#3"/>
    <trip id="275" depart="275.00" from="-35599340#0" to="-44164880#0"/>
    <trip id="276" depart="276.00" from="273759957#0" to="-24154907#4"/>
    <trip id="277" depart="277.00" from="-44166991#2" to="-43331545#1"/>
    <trip id="278" depart="278.00" from="44164882#4" to="-23497770#1"/>
    <trip id="279" depart="279.00" from="-44164823#0" to="-44164822#0"/>
    <trip id="280" depart="280.00" from="42141124#7" to="-42785550#1"/>
    <trip id="281" depart="281.00" from="-41843762#3" to="-42785414#7"/>
    <trip id="282" depart="282.00" from="-82696480#1" to="44164883#3"/>
    <trip id="283" depart="283.00" from="42785414#2" to="-42785412#8"/>
    <trip id="284" depart="284.00" from="24154819#3" to="3996374#0"/>
    <trip id="285" depart="285.00" from="42785414#11" to="-44164905#2"/>
    <trip id="286" depart="286.00" from="-44164767#3" to="42785412#10"/>
    <trip id="287" depart="287.00" from="-44164888#1" to="-42785401"/>
    <trip id="288" depart="288.00" from="-446315297" to="44164880#0"/>
    <trip id="289" depart="289.00" from="-35599340#0" to="-456569450"/>
    <trip id="290" depart="290.00" from="273759957#0" to="10153831#0"/>
    <trip id="291" depart="291.00" from="-41843762#2" to="-10153830#3"/>
    <trip id="292" depart="292.00" from="3979615#5" to="256520229#7"/>
    <trip id="293" depart="293.00" from="-124818962#2" to="-42785415#3"/>
    <trip id="294" depart="294.00" from="42785410#0" to="31483070#1"/>
    <trip id="295" depart="295.00" from="24154692#0" to="-35599335"/>
    <trip id="296" depart="296.00" from="41843702#0" to="-7662746#1"/>
    <trip id="297" depart="297.00" from="38518762#0" to="42785410#2"/>
    <trip id="298" depart="298.00" from="-42785401" to="42785411#10"/>
    <trip id="299" depart="299.00" from="-42785414#8" to="504872403"/>
    <trip id="300" depart="300.00" from="-252994870" to="43332227#0"/>
    <trip id="301" depart="301.00" from="-23334836#2" to="-42785405#0"/>
    <trip id="302" depart="302.00" from="23334937#0" to="24154991#3"/>
    <trip id="303" depart="303.00" from="-44164765#1" to="-24154991#3"/>
    <trip id="304" depart="304.00" from="-42785411#6" to="-42785413#7"/>
    <trip id="305" depart="305.00" from="42785401" to="435756257#5"/>
    <trip id="306" depart="306.00" from="24155037#4" to="-22780710#1"/>
    <trip id="307" depart="307.00" from="42785413#9" to="-42785536#0"/>
    <trip id="308" depart="308.00" from="-42965144" to="23334943#0"/>
    <trip id="309" depart="309.00" from="-42785411#1" to="44164736#3"/>
    <trip id="310" depart="310.00" from="-35674242" to="-44164820#1"/>
    <trip id="311" depart="311.00" from="-42785422#4" to="23334824#0"/>
    <trip id="312" depart="312.00" from="24154915#0" to="279419698"/>
    <trip id="313" depart="313.00" from="23334948#1" to="-44164817#2"/>
    <trip id="314" depart="314.00" from="26596145#0" to="-44164734#0"/>
    <trip id="315" depart="315.00" from="42785412#2" to="42785414#2"/>
    <trip id="316" depart="316.00" from="-42785536#0" to="-43331547#3"/>
    <trip id="317" depart="317.00" from="25517481#0" to="-35599338#1"/>
    <trip id="318" depart="318.00" from="3979577#2" to="-43332235"/>
    <trip id="319" depart="319.00" from="24154991#7" to="-25517480#0"/>
    <trip id="320" depart="320.00" from="35674241#1" to="-43131703"/>
    <trip id="321" depart="321.00" from="-82696481#2" to="-44164820#2"/>
    <trip id="322" depart="322.00" from="10153829#0" to="41843701"/>
    <trip id="323" depart="323.00" from="-42786479" to="35599342#8"/>
    <trip id="324" depart="324.00" from="-24153588#1" to="-42785421#1"/>
    <trip id="325" depart="325.00" from="42784219#0" to="-23334948#2"/>
    <trip id="326" depart="326.00" from="24158249" to="-214366956#1"/>
    <trip id="327" depart="327.00" from="-82696480#3" to="43332228#3"/>
    <trip id="328" depart="328.00" from="-162327176" to="23334934#0"/>
    <trip id="329" depart="329.00" from="-24154734" to="43331306"/>
    <trip id="330" depart="330.00" from="38518800#0" to="42784502#4"/>
    <trip id="331" depart="331.00" from="35674241#1" to="-124818960"/>
    <trip id="332" depart="332.00" from="-23334836#2" to="25795200#0"/>
    <trip id="333" depart="333.00" from="8812128#0" to="43331314"/>
    <trip id="334" depart="334.00" from="3979615#5" to="42705131#2"/>
    <trip id="335" depart="335.00" from="-42784502#2" to="42785404#6"/>
    <trip id="336" depart="336.00" from="-42785421#3" to="-24154991#7"/>
    <trip id="337" depart="337.00" from="-504874504" to="-42786478#1"/>
    <trip id="338" depart="338.00" from="-37407765" to="-44164825#1"/>
    <trip id="339" depart="339.00" from="43332235" to="-44164883#3"/>
</routes>
