<?xml version="1.0" encoding="UTF-8"?>

<!-- generated on Thu 22 Apr 2021 01:45:56 PM by Eclipse SUMO netedit Version 1.8.0
<configuration xmlns:xsi="http://www.w3.org/2001/XMLSchema-instance" xsi:noNamespaceSchemaLocation="http://sumo.dlr.de/xsd/netconvertConfiguration.xsd">

    <input>
        <sumo-net-file value="osm.net.xml"/>
    </input>

    <output>
        <output-file value="osm.net.xml"/>
        <output.street-names value="true"/>
    </output>

    <processing>
        <geometry.min-radius.fix.railways value="false"/>
        <geometry.max-grade.fix value="false"/>
        <offset.disable-normalization value="true"/>
        <lefthand value="false"/>
    </processing>

    <junctions>
        <no-turnarounds value="true"/>
        <junctions.corner-detail value="5"/>
        <junctions.limit-turn-speed value="5.5"/>
        <rectangular-lane-cut value="false"/>
    </junctions>

    <pedestrian>
        <walkingareas value="false"/>
    </pedestrian>

    <report>
        <aggregate-warnings value="5"/>
    </report>

</configuration>
-->

<net version="1.6" junctionCornerDetail="5" limitTurnSpeed="5.50" xmlns:xsi="http://www.w3.org/2001/XMLSchema-instance" xsi:noNamespaceSchemaLocation="http://sumo.dlr.de/xsd/net_file.xsd">

    <location netOffset="-625622.94,-4841643.50" convBoundary="471.26,377.07,3888.29,2426.65" origBoundary="-79.441116,43.697982,-79.384601,43.781310" projParameter="+proj=utm +zone=17 +ellps=WGS84 +datum=WGS84 +units=m +no_defs"/>

    <type id="highway.bridleway" priority="1" numLanes="1" speed="2.78" allow="pedestrian" oneway="1" width="2.00"/>
    <type id="highway.bus_guideway" priority="1" numLanes="1" speed="27.78" allow="bus" oneway="1"/>
    <type id="highway.cycleway" priority="1" numLanes="1" speed="8.33" allow="bicycle" oneway="1" width="1.00"/>
    <type id="highway.footway" priority="1" numLanes="1" speed="2.78" allow="pedestrian" oneway="1" width="2.00"/>
    <type id="highway.ford" priority="1" numLanes="1" speed="2.78" allow="army" oneway="1"/>
    <type id="highway.living_street" priority="2" numLanes="1" speed="2.78" disallow="tram rail_urban rail rail_electric rail_fast ship" oneway="1"/>
    <type id="highway.motorway" priority="14" numLanes="2" speed="39.44" allow="private emergency authority army vip passenger hov taxi bus coach delivery truck trailer motorcycle evehicle custom1 custom2" oneway="1"/>
    <type id="highway.motorway_link" priority="9" numLanes="1" speed="22.22" allow="private emergency authority army vip passenger hov taxi bus coach delivery truck trailer motorcycle evehicle custom1 custom2" oneway="1"/>
    <type id="highway.path" priority="1" numLanes="1" speed="2.78" allow="pedestrian bicycle" oneway="1" width="2.00"/>
    <type id="highway.pedestrian" priority="1" numLanes="1" speed="2.78" allow="pedestrian" oneway="1" width="2.00"/>
    <type id="highway.primary" priority="12" numLanes="2" speed="27.78" disallow="tram rail_urban rail rail_electric rail_fast ship" oneway="1"/>
    <type id="highway.primary_link" priority="7" numLanes="1" speed="22.22" disallow="tram rail_urban rail rail_electric rail_fast ship" oneway="1"/>
    <type id="highway.raceway" priority="15" numLanes="2" speed="83.33" allow="vip" oneway="1"/>
    <type id="highway.residential" priority="3" numLanes="1" speed="13.89" disallow="tram rail_urban rail rail_electric rail_fast ship" oneway="1"/>
    <type id="highway.secondary" priority="11" numLanes="1" speed="27.78" disallow="tram rail_urban rail rail_electric rail_fast ship" oneway="1"/>
    <type id="highway.secondary_link" priority="6" numLanes="1" speed="22.22" disallow="tram rail_urban rail rail_electric rail_fast ship" oneway="1"/>
    <type id="highway.service" priority="1" numLanes="1" speed="5.56" allow="pedestrian delivery bicycle" oneway="1"/>
    <type id="highway.stairs" priority="1" numLanes="1" speed="1.39" allow="pedestrian" oneway="1" width="2.00"/>
    <type id="highway.step" priority="1" numLanes="1" speed="1.39" allow="pedestrian" oneway="1" width="2.00"/>
    <type id="highway.steps" priority="1" numLanes="1" speed="1.39" allow="pedestrian" oneway="1" width="2.00"/>
    <type id="highway.tertiary" priority="10" numLanes="1" speed="22.22" disallow="tram rail_urban rail rail_electric rail_fast ship" oneway="1"/>
    <type id="highway.tertiary_link" priority="5" numLanes="1" speed="22.22" disallow="tram rail_urban rail rail_electric rail_fast ship" oneway="1"/>
    <type id="highway.track" priority="1" numLanes="1" speed="5.56" allow="pedestrian motorcycle moped bicycle" oneway="1"/>
    <type id="highway.trunk" priority="13" numLanes="2" speed="27.78" disallow="pedestrian bicycle tram rail_urban rail rail_electric rail_fast ship" oneway="1"/>
    <type id="highway.trunk_link" priority="8" numLanes="1" speed="22.22" disallow="pedestrian bicycle tram rail_urban rail rail_electric rail_fast ship" oneway="1"/>
    <type id="highway.unclassified" priority="4" numLanes="1" speed="13.89" disallow="tram rail_urban rail rail_electric rail_fast ship" oneway="1"/>
    <type id="highway.unsurfaced" priority="1" numLanes="1" speed="8.33" disallow="tram rail_urban rail rail_electric rail_fast ship" oneway="1"/>
    <type id="railway.highspeed" priority="21" numLanes="1" speed="69.44" allow="rail_fast" oneway="1"/>
    <type id="railway.light_rail" priority="19" numLanes="1" speed="27.78" allow="rail_urban" oneway="1"/>
    <type id="railway.preserved" priority="16" numLanes="1" speed="27.78" allow="rail" oneway="1"/>
    <type id="railway.rail" priority="20" numLanes="1" speed="44.44" allow="rail" oneway="1"/>
    <type id="railway.subway" priority="18" numLanes="1" speed="27.78" allow="rail_urban" oneway="1"/>
    <type id="railway.tram" priority="17" numLanes="1" speed="13.89" allow="tram" oneway="1"/>

    <edge id=":1190444836_0" function="internal">
        <lane id=":1190444836_0_0" index="0" disallow="tram rail_urban rail rail_electric rail_fast ship" speed="3.65" length="4.67" shape="1239.71,1232.51 1238.80,1231.39 1238.65,1230.51 1239.27,1229.86 1240.65,1229.45"/>
    </edge>
    <edge id=":1190444839_0" function="internal">
        <lane id=":1190444839_0_0" index="0" disallow="tram rail_urban rail rail_electric rail_fast ship" speed="11.11" length="14.39" shape="1291.24,1239.16 1286.99,1252.90"/>
    </edge>
    <edge id=":1190444839_1" function="internal">
        <lane id=":1190444839_1_0" index="0" disallow="tram rail_urban rail rail_electric rail_fast ship" speed="8.01" length="14.19" shape="1291.24,1239.16 1289.58,1242.67 1287.18,1244.80 1284.07,1245.57 1280.23,1244.96"/>
    </edge>
    <edge id=":1190444839_2" function="internal">
        <lane id=":1190444839_2_0" index="0" disallow="tram rail_urban rail rail_electric rail_fast ship" speed="3.65" length="4.67" shape="1291.24,1239.16 1290.12,1240.07 1289.24,1240.21 1288.59,1239.59 1288.18,1238.21"/>
    </edge>
    <edge id=":1190444839_3" function="internal">
        <lane id=":1190444839_3_0" index="0" disallow="tram rail_urban rail rail_electric rail_fast ship" speed="6.52" length="9.04" shape="1281.17,1241.91 1283.62,1242.29 1285.60,1241.80 1287.12,1240.44 1288.18,1238.21"/>
    </edge>
    <edge id=":1190444839_4" function="internal">
        <lane id=":1190444839_4_0" index="0" disallow="tram rail_urban rail rail_electric rail_fast ship" speed="8.00" length="14.19" shape="1281.17,1241.91 1284.69,1243.56 1286.83,1245.95 1287.60,1249.06 1286.99,1252.90"/>
    </edge>
    <edge id=":1190444839_5" function="internal">
        <lane id=":1190444839_5_0" index="0" disallow="tram rail_urban rail rail_electric rail_fast ship" speed="3.65" length="4.67" shape="1281.17,1241.91 1282.08,1243.02 1282.23,1243.90 1281.61,1244.55 1280.23,1244.96"/>
    </edge>
    <edge id=":1190444839_6" function="internal">
        <lane id=":1190444839_6_0" index="0" disallow="tram rail_urban rail rail_electric rail_fast ship" speed="6.51" length="9.03" shape="1283.93,1251.96 1284.32,1249.52 1283.83,1247.54 1282.47,1246.02 1280.23,1244.96"/>
    </edge>
    <edge id=":1190444839_7" function="internal">
        <lane id=":1190444839_7_0" index="0" disallow="tram rail_urban rail rail_electric rail_fast ship" speed="11.11" length="14.40" shape="1283.93,1251.96 1288.18,1238.21"/>
    </edge>
    <edge id=":1190444839_8" function="internal">
        <lane id=":1190444839_8_0" index="0" disallow="tram rail_urban rail rail_electric rail_fast ship" speed="3.65" length="4.67" shape="1283.93,1251.96 1285.05,1251.05 1285.93,1250.90 1286.58,1251.52 1286.99,1252.90"/>
    </edge>
    <edge id=":130029783_0" function="internal">
        <lane id=":130029783_0_0" index="0" disallow="tram rail_urban rail rail_electric rail_fast ship" speed="27.78" length="0.29" shape="532.44,2008.70 532.39,2008.98"/>
        <lane id=":130029783_0_1" index="1" disallow="tram rail_urban rail rail_electric rail_fast ship" speed="27.78" length="0.29" shape="529.30,2008.10 529.24,2008.39"/>
    </edge>
    <edge id=":130029783_2" function="internal">
        <lane id=":130029783_2_0" index="0" disallow="tram rail_urban rail rail_electric rail_fast ship" speed="27.78" length="0.31" shape="522.96,2007.21 523.01,2006.90"/>
        <lane id=":130029783_2_1" index="1" disallow="tram rail_urban rail rail_electric rail_fast ship" speed="27.78" length="0.31" shape="526.10,2007.80 526.16,2007.50"/>
    </edge>
    <edge id=":130029783_4" function="internal">
        <lane id=":130029783_4_0" index="0" disallow="tram rail_urban rail rail_electric rail_fast ship" speed="3.65" length="2.34" shape="526.10,2007.80 527.11,2006.77 527.97,2006.52"/>
    </edge>
    <edge id=":130029783_5" function="internal">
        <lane id=":130029783_5_0" index="0" disallow="tram rail_urban rail rail_electric rail_fast ship" speed="3.65" length="2.34" shape="527.97,2006.52 528.68,2007.07 529.24,2008.39"/>
    </edge>
    <edge id=":1333985960_0" function="internal">
        <lane id=":1333985960_0_0" index="0" disallow="tram rail_urban rail rail_electric rail_fast ship" speed="13.89" length="0.15" shape="961.60,767.17 961.56,767.20 961.54,767.21 961.51,767.23 961.48,767.26"/>
    </edge>
    <edge id=":1333985960_1" function="internal">
        <lane id=":1333985960_1_0" index="0" disallow="tram rail_urban rail rail_electric rail_fast ship" speed="13.89" length="0.44" shape="959.47,764.77 959.57,764.68 959.65,764.63 959.72,764.58 959.83,764.50"/>
    </edge>
    <edge id=":145213340_0" function="internal">
        <lane id=":145213340_0_0" index="0" disallow="tram rail_urban rail rail_electric rail_fast ship" speed="6.50" length="9.06" shape="1955.76,767.46 1953.30,767.07 1951.32,767.55 1949.80,768.92 1948.75,771.17"/>
    </edge>
    <edge id=":145213340_1" function="internal">
        <lane id=":145213340_1_0" index="0" disallow="tram rail_urban rail rail_electric rail_fast ship" speed="12.50" length="20.86" shape="1955.76,767.46 1935.85,761.21"/>
    </edge>
    <edge id=":145213340_2" function="internal">
        <lane id=":145213340_2_0" index="0" disallow="tram rail_urban rail rail_electric rail_fast ship" speed="8.66" length="16.90" shape="1955.76,767.46 1950.89,765.37 1947.80,762.67 1946.48,759.36 1946.94,755.46"/>
    </edge>
    <edge id=":145213340_3" function="internal">
        <lane id=":145213340_3_0" index="0" disallow="tram rail_urban rail rail_electric rail_fast ship" speed="3.65" length="4.67" shape="1955.76,767.46 1954.85,766.34 1954.70,765.46 1955.31,764.81 1956.70,764.40"/>
    </edge>
    <edge id=":145213340_4" function="internal">
        <lane id=":145213340_4_0" index="0" disallow="tram rail_urban rail rail_electric rail_fast ship" speed="6.49" length="9.02" shape="1953.03,757.40 1952.63,759.84 1953.10,761.82 1954.46,763.34 1956.70,764.40"/>
    </edge>
    <edge id=":145213340_5" function="internal">
        <lane id=":145213340_5_0" index="0" disallow="tram rail_urban rail rail_electric rail_fast ship" speed="13.89" length="14.45" shape="1953.03,757.40 1948.75,771.17"/>
        <lane id=":145213340_5_1" index="1" disallow="tram rail_urban rail rail_electric rail_fast ship" speed="13.89" length="14.45" shape="1949.99,756.43 1945.68,770.24"/>
    </edge>
    <edge id=":145213340_7" function="internal">
        <lane id=":145213340_7_0" index="0" disallow="tram rail_urban rail rail_electric rail_fast ship" speed="8.68" length="5.24" shape="1949.99,756.43 1948.09,759.90 1947.01,760.60"/>
    </edge>
    <edge id=":145213340_8" function="internal">
        <lane id=":145213340_8_0" index="0" disallow="tram rail_urban rail rail_electric rail_fast ship" speed="3.65" length="2.34" shape="1949.99,756.43 1948.86,757.33 1947.98,757.47"/>
    </edge>
    <edge id=":145213340_18" function="internal">
        <lane id=":145213340_18_0" index="0" disallow="tram rail_urban rail rail_electric rail_fast ship" speed="8.68" length="11.66" shape="1947.01,760.60 1945.10,761.85 1941.02,762.29 1935.85,761.21"/>
    </edge>
    <edge id=":145213340_19" function="internal">
        <lane id=":145213340_19_0" index="0" disallow="tram rail_urban rail rail_electric rail_fast ship" speed="3.65" length="2.34" shape="1947.98,757.47 1947.33,756.84 1946.94,755.46"/>
    </edge>
    <edge id=":145213340_9" function="internal">
        <lane id=":145213340_9_0" index="0" disallow="tram rail_urban rail rail_electric rail_fast ship" speed="6.52" length="9.08" shape="1936.83,758.17 1939.27,758.58 1941.26,758.10 1942.80,756.74 1943.89,754.48"/>
    </edge>
    <edge id=":145213340_10" function="internal">
        <lane id=":145213340_10_0" index="0" disallow="tram rail_urban rail rail_electric rail_fast ship" speed="12.50" length="20.82" shape="1936.83,758.17 1956.70,764.40"/>
    </edge>
    <edge id=":145213340_11" function="internal">
        <lane id=":145213340_11_0" index="0" disallow="tram rail_urban rail rail_electric rail_fast ship" speed="8.74" length="16.90" shape="1936.83,758.17 1941.66,760.29 1944.75,763.02 1946.09,766.33 1945.68,770.24"/>
    </edge>
    <edge id=":145213340_12" function="internal">
        <lane id=":145213340_12_0" index="0" disallow="tram rail_urban rail rail_electric rail_fast ship" speed="3.65" length="4.67" shape="1936.83,758.17 1937.73,759.29 1937.87,760.18 1937.24,760.82 1935.85,761.21"/>
    </edge>
    <edge id=":145213340_13" function="internal">
        <lane id=":145213340_13_0" index="0" disallow="tram rail_urban rail rail_electric rail_fast ship" speed="6.59" length="9.18" shape="1939.56,768.39 1939.95,765.89 1939.46,763.87 1938.10,762.31 1935.85,761.21"/>
    </edge>
    <edge id=":145213340_14" function="internal">
        <lane id=":145213340_14_0" index="0" disallow="tram rail_urban rail rail_electric rail_fast ship" speed="13.89" length="14.54" shape="1939.56,768.39 1943.89,754.48"/>
        <lane id=":145213340_14_1" index="1" disallow="tram rail_urban rail rail_electric rail_fast ship" speed="13.89" length="14.54" shape="1942.62,769.31 1946.94,755.46"/>
    </edge>
    <edge id=":145213340_16" function="internal">
        <lane id=":145213340_16_0" index="0" disallow="tram rail_urban rail rail_electric rail_fast ship" speed="8.66" length="5.34" shape="1942.62,769.31 1944.47,765.82 1945.63,765.05"/>
    </edge>
    <edge id=":145213340_17" function="internal">
        <lane id=":145213340_17_0" index="0" disallow="tram rail_urban rail rail_electric rail_fast ship" speed="3.65" length="2.34" shape="1942.62,769.31 1943.74,768.40 1944.62,768.25"/>
    </edge>
    <edge id=":145213340_20" function="internal">
        <lane id=":145213340_20_0" index="0" disallow="tram rail_urban rail rail_electric rail_fast ship" speed="8.66" length="11.57" shape="1945.63,765.05 1947.43,763.84 1951.51,763.37 1956.70,764.40"/>
    </edge>
    <edge id=":145213340_21" function="internal">
        <lane id=":145213340_21_0" index="0" disallow="tram rail_urban rail rail_electric rail_fast ship" speed="3.65" length="2.34" shape="1944.62,768.25 1945.27,768.86 1945.68,770.24"/>
    </edge>
    <edge id=":145218144_0" function="internal">
        <lane id=":145218144_0_0" index="0" disallow="tram rail_urban rail rail_electric rail_fast ship" speed="6.27" length="9.04" shape="804.47,613.19 801.98,612.80 800.06,613.34 798.69,614.81 797.90,617.20"/>
    </edge>
    <edge id=":145218144_1" function="internal">
        <lane id=":145218144_1_0" index="0" disallow="tram rail_urban rail rail_electric rail_fast ship" speed="9.05" length="16.90" shape="804.47,613.19 799.44,611.13 796.05,608.55 794.31,605.44 794.22,601.80"/>
    </edge>
    <edge id=":145218144_2" function="internal">
        <lane id=":145218144_2_0" index="0" disallow="tram rail_urban rail rail_electric rail_fast ship" speed="3.65" length="4.67" shape="804.47,613.19 803.56,612.07 803.41,611.19 804.03,610.54 805.41,610.13"/>
    </edge>
    <edge id=":145218144_3" function="internal">
        <lane id=":145218144_3_0" index="0" disallow="tram rail_urban rail rail_electric rail_fast ship" speed="6.98" length="9.65" shape="800.51,602.98 800.44,605.43 801.23,607.44 802.89,609.00 805.41,610.13"/>
    </edge>
    <edge id=":145218144_4" function="internal">
        <lane id=":145218144_4_0" index="0" disallow="tram rail_urban rail rail_electric rail_fast ship" speed="27.78" length="14.47" shape="800.51,602.98 797.90,617.20"/>
        <lane id=":145218144_4_1" index="1" disallow="tram rail_urban rail rail_electric rail_fast ship" speed="27.78" length="14.47" shape="797.37,602.39 794.75,616.63"/>
    </edge>
    <edge id=":145218144_6" function="internal">
        <lane id=":145218144_6_0" index="0" disallow="tram rail_urban rail rail_electric rail_fast ship" speed="3.65" length="2.34" shape="797.37,602.39 796.36,603.42 795.50,603.67"/>
    </edge>
    <edge id=":145218144_11" function="internal">
        <lane id=":145218144_11_0" index="0" disallow="tram rail_urban rail rail_electric rail_fast ship" speed="3.65" length="2.34" shape="795.50,603.67 794.79,603.13 794.22,601.80"/>
    </edge>
    <edge id=":145218144_7" function="internal">
        <lane id=":145218144_7_0" index="0" disallow="tram rail_urban rail rail_electric rail_fast ship" speed="27.78" length="14.52" shape="788.45,615.49 791.08,601.20"/>
        <lane id=":145218144_7_1" index="1" disallow="tram rail_urban rail rail_electric rail_fast ship" speed="27.78" length="14.52" shape="791.60,616.06 794.22,601.80"/>
    </edge>
    <edge id=":145218144_9" function="internal">
        <lane id=":145218144_9_0" index="0" disallow="tram rail_urban rail rail_electric rail_fast ship" speed="8.48" length="5.55" shape="791.60,616.06 793.11,612.08 794.11,611.26"/>
    </edge>
    <edge id=":145218144_10" function="internal">
        <lane id=":145218144_10_0" index="0" disallow="tram rail_urban rail rail_electric rail_fast ship" speed="3.65" length="2.34" shape="791.60,616.06 792.60,615.02 793.46,614.77"/>
    </edge>
    <edge id=":145218144_12" function="internal">
        <lane id=":145218144_12_0" index="0" disallow="tram rail_urban rail rail_electric rail_fast ship" speed="8.48" length="11.98" shape="794.11,611.26 795.92,609.76 800.02,609.11 805.41,610.13"/>
    </edge>
    <edge id=":145218144_13" function="internal">
        <lane id=":145218144_13_0" index="0" disallow="tram rail_urban rail rail_electric rail_fast ship" speed="3.65" length="2.34" shape="793.46,614.77 794.17,615.31 794.75,616.63"/>
    </edge>
    <edge id=":1695450987_0" function="internal">
        <lane id=":1695450987_0_0" index="0" disallow="tram rail_urban rail rail_electric rail_fast ship" speed="13.89" length="14.39" shape="1924.81,850.07 1920.64,863.85"/>
        <lane id=":1695450987_0_1" index="1" disallow="tram rail_urban rail rail_electric rail_fast ship" speed="13.89" length="14.39" shape="1921.75,849.15 1917.58,862.92"/>
    </edge>
    <edge id=":1695450987_2" function="internal">
        <lane id=":1695450987_2_0" index="0" disallow="tram rail_urban rail rail_electric rail_fast ship" speed="8.63" length="5.40" shape="1921.75,849.15 1919.88,852.73 1918.76,853.49"/>
    </edge>
    <edge id=":1695450987_3" function="internal">
        <lane id=":1695450987_3_0" index="0" disallow="tram rail_urban rail rail_electric rail_fast ship" speed="3.65" length="2.34" shape="1921.75,849.15 1920.64,850.06 1919.75,850.21"/>
    </edge>
    <edge id=":1695450987_11" function="internal">
        <lane id=":1695450987_11_0" index="0" disallow="tram rail_urban rail rail_electric rail_fast ship" speed="8.63" length="11.61" shape="1918.76,853.49 1916.91,854.75 1912.84,855.21 1907.68,854.10"/>
    </edge>
    <edge id=":1695450987_12" function="internal">
        <lane id=":1695450987_12_0" index="0" disallow="tram rail_urban rail rail_electric rail_fast ship" speed="3.65" length="2.34" shape="1919.75,850.21 1919.11,849.60 1918.69,848.22"/>
    </edge>
    <edge id=":1695450987_4" function="internal">
        <lane id=":1695450987_4_0" index="0" disallow="tram rail_urban rail rail_electric rail_fast ship" speed="6.49" length="9.16" shape="1908.56,851.02 1911.02,851.46 1913.02,850.98 1914.56,849.59 1915.63,847.29"/>
    </edge>
    <edge id=":1695450987_5" function="internal">
        <lane id=":1695450987_5_0" index="0" disallow="tram rail_urban rail rail_electric rail_fast ship" speed="8.74" length="16.78" shape="1908.56,851.02 1913.43,853.19 1916.55,855.90 1917.93,859.14 1917.58,862.92"/>
    </edge>
    <edge id=":1695450987_6" function="internal">
        <lane id=":1695450987_6_0" index="0" disallow="tram rail_urban rail rail_electric rail_fast ship" speed="3.65" length="4.68" shape="1908.56,851.02 1909.50,852.12 1909.66,853.00 1909.06,853.66 1907.68,854.10"/>
    </edge>
    <edge id=":1695450987_7" function="internal">
        <lane id=":1695450987_7_0" index="0" disallow="tram rail_urban rail rail_electric rail_fast ship" speed="6.55" length="8.98" shape="1911.45,861.07 1911.81,858.68 1911.30,856.73 1909.92,855.20 1907.68,854.10"/>
    </edge>
    <edge id=":1695450987_8" function="internal">
        <lane id=":1695450987_8_0" index="0" disallow="tram rail_urban rail rail_electric rail_fast ship" speed="13.89" length="14.40" shape="1911.45,861.07 1915.63,847.29"/>
        <lane id=":1695450987_8_1" index="1" disallow="tram rail_urban rail rail_electric rail_fast ship" speed="13.89" length="14.40" shape="1914.51,862.00 1918.69,848.22"/>
    </edge>
    <edge id=":1695450987_10" function="internal">
        <lane id=":1695450987_10_0" index="0" disallow="tram rail_urban rail rail_electric rail_fast ship" speed="3.65" length="2.34" shape="1914.51,862.00 1915.63,861.08 1916.51,860.93"/>
    </edge>
    <edge id=":1695450987_13" function="internal">
        <lane id=":1695450987_13_0" index="0" disallow="tram rail_urban rail rail_electric rail_fast ship" speed="3.65" length="2.34" shape="1916.51,860.93 1917.16,861.54 1917.58,862.92"/>
    </edge>
    <edge id=":1742355501_0" function="internal">
        <lane id=":1742355501_0_0" index="0" disallow="tram rail_urban rail rail_electric rail_fast ship" speed="13.89" length="8.54" shape="565.96,2270.07 563.45,2270.14 561.74,2270.95 560.04,2271.77 557.53,2271.84"/>
        <lane id=":1742355501_0_1" index="1" disallow="tram rail_urban rail rail_electric rail_fast ship" speed="13.89" length="8.54" shape="566.51,2266.92 564.00,2266.98 562.30,2267.80 560.59,2268.62 558.08,2268.69"/>
        <lane id=":1742355501_0_2" index="2" disallow="tram rail_urban rail rail_electric rail_fast ship" speed="13.89" length="8.54" shape="566.51,2266.92 558.63,2265.53"/>
    </edge>
    <edge id=":1742355501_3" function="internal">
        <lane id=":1742355501_3_0" index="0" disallow="tram rail_urban rail rail_electric rail_fast ship" speed="13.89" length="8.00" shape="560.29,2256.08 568.17,2257.46"/>
        <lane id=":1742355501_3_1" index="1" disallow="tram rail_urban rail rail_electric rail_fast ship" speed="13.89" length="8.00" shape="559.74,2259.23 567.62,2260.61"/>
        <lane id=":1742355501_3_2" index="2" disallow="tram rail_urban rail rail_electric rail_fast ship" speed="13.89" length="8.00" shape="559.19,2262.38 567.07,2263.76"/>
    </edge>
    <edge id=":20380892_0" function="internal">
        <lane id=":20380892_0_0" index="0" disallow="tram rail_urban rail rail_electric rail_fast ship" speed="6.21" length="9.07" shape="1667.93,1820.40 1665.43,1819.96 1663.51,1820.47 1662.16,1821.94 1661.38,1824.36"/>
    </edge>
    <edge id=":20380892_1" function="internal">
        <lane id=":20380892_1_0" index="0" disallow="tram rail_urban rail rail_electric rail_fast ship" speed="11.11" length="21.94" shape="1667.93,1820.40 1646.97,1813.90"/>
    </edge>
    <edge id=":20380892_2" function="internal">
        <lane id=":20380892_2_0" index="0" disallow="tram rail_urban rail rail_electric rail_fast ship" speed="9.88" length="7.73" shape="1667.93,1820.40 1662.93,1818.12 1661.24,1816.65"/>
    </edge>
    <edge id=":20380892_3" function="internal">
        <lane id=":20380892_3_0" index="0" disallow="tram rail_urban rail rail_electric rail_fast ship" speed="3.65" length="2.34" shape="1667.93,1820.40 1667.03,1819.27 1666.90,1818.38"/>
    </edge>
    <edge id=":20380892_18" function="internal">
        <lane id=":20380892_18_0" index="0" disallow="tram rail_urban rail rail_electric rail_fast ship" speed="9.88" length="10.87" shape="1661.24,1816.65 1659.50,1815.13 1657.65,1811.43 1657.38,1807.02"/>
    </edge>
    <edge id=":20380892_19" function="internal">
        <lane id=":20380892_19_0" index="0" disallow="tram rail_urban rail rail_electric rail_fast ship" speed="3.65" length="2.34" shape="1666.90,1818.38 1667.52,1817.75 1668.91,1817.35"/>
    </edge>
    <edge id=":20380892_4" function="internal">
        <lane id=":20380892_4_0" index="0" disallow="tram rail_urban rail rail_electric rail_fast ship" speed="8.01" length="11.91" shape="1663.74,1807.76 1663.75,1811.21 1664.62,1813.96 1666.34,1816.01 1668.91,1817.35"/>
    </edge>
    <edge id=":20380892_5" function="internal">
        <lane id=":20380892_5_0" index="0" disallow="tram rail_urban rail rail_electric rail_fast ship" speed="13.89" length="16.68" shape="1663.74,1807.76 1661.38,1824.36"/>
        <lane id=":20380892_5_1" index="1" disallow="tram rail_urban rail rail_electric rail_fast ship" speed="13.89" length="16.68" shape="1660.56,1807.39 1658.23,1823.83"/>
    </edge>
    <edge id=":20380892_7" function="internal">
        <lane id=":20380892_7_0" index="0" disallow="tram rail_urban rail rail_electric rail_fast ship" speed="8.39" length="5.92" shape="1660.56,1807.39 1659.30,1811.63 1658.20,1812.64"/>
    </edge>
    <edge id=":20380892_8" function="internal">
        <lane id=":20380892_8_0" index="0" disallow="tram rail_urban rail rail_electric rail_fast ship" speed="3.65" length="2.34" shape="1660.56,1807.39 1659.63,1808.49 1658.79,1808.79"/>
    </edge>
    <edge id=":20380892_20" function="internal">
        <lane id=":20380892_20_0" index="0" disallow="tram rail_urban rail rail_electric rail_fast ship" speed="8.39" length="11.97" shape="1658.20,1812.64 1656.61,1814.12 1652.50,1814.88 1646.97,1813.90"/>
    </edge>
    <edge id=":20380892_21" function="internal">
        <lane id=":20380892_21_0" index="0" disallow="tram rail_urban rail rail_electric rail_fast ship" speed="3.65" length="2.34" shape="1658.79,1808.79 1658.04,1808.30 1657.38,1807.02"/>
    </edge>
    <edge id=":20380892_9" function="internal">
        <lane id=":20380892_9_0" index="0" disallow="tram rail_urban rail rail_electric rail_fast ship" speed="6.15" length="9.06" shape="1647.88,1810.83 1650.41,1811.20 1652.30,1810.63 1653.57,1809.11 1654.20,1806.65"/>
    </edge>
    <edge id=":20380892_10" function="internal">
        <lane id=":20380892_10_0" index="0" disallow="tram rail_urban rail rail_electric rail_fast ship" speed="11.11" length="22.02" shape="1647.88,1810.83 1668.91,1817.35"/>
    </edge>
    <edge id=":20380892_11" function="internal">
        <lane id=":20380892_11_0" index="0" disallow="tram rail_urban rail rail_electric rail_fast ship" speed="9.46" length="8.34" shape="1647.88,1810.83 1653.01,1812.98 1655.14,1814.76"/>
    </edge>
    <edge id=":20380892_12" function="internal">
        <lane id=":20380892_12_0" index="0" disallow="tram rail_urban rail rail_electric rail_fast ship" speed="3.65" length="2.34" shape="1647.88,1810.83 1648.80,1811.94 1648.96,1812.82"/>
    </edge>
    <edge id=":20380892_22" function="internal">
        <lane id=":20380892_22_0" index="0" disallow="tram rail_urban rail rail_electric rail_fast ship" speed="9.46" length="10.07" shape="1655.14,1814.76 1656.44,1815.85 1658.18,1819.47 1658.23,1823.83"/>
    </edge>
    <edge id=":20380892_23" function="internal">
        <lane id=":20380892_23_0" index="0" disallow="tram rail_urban rail rail_electric rail_fast ship" speed="3.65" length="2.34" shape="1648.96,1812.82 1648.35,1813.48 1646.97,1813.90"/>
    </edge>
    <edge id=":20380892_13" function="internal">
        <lane id=":20380892_13_0" index="0" disallow="tram rail_urban rail rail_electric rail_fast ship" speed="7.52" length="11.27" shape="1651.92,1822.75 1652.06,1819.56 1651.28,1817.03 1649.58,1815.14 1646.97,1813.90"/>
    </edge>
    <edge id=":20380892_14" function="internal">
        <lane id=":20380892_14_0" index="0" disallow="tram rail_urban rail rail_electric rail_fast ship" speed="13.89" length="16.35" shape="1651.92,1822.75 1654.20,1806.65"/>
        <lane id=":20380892_14_1" index="1" disallow="tram rail_urban rail rail_electric rail_fast ship" speed="13.89" length="16.35" shape="1655.07,1823.29 1657.38,1807.02"/>
    </edge>
    <edge id=":20380892_16" function="internal">
        <lane id=":20380892_16_0" index="0" disallow="tram rail_urban rail rail_electric rail_fast ship" speed="8.44" length="5.41" shape="1655.07,1823.29 1656.57,1819.18 1657.36,1818.52"/>
    </edge>
    <edge id=":20380892_17" function="internal">