<?xml version="1.0" encoding="UTF-8"?>

<!-- generated on Tue Jun 22 15:51:45 2021 by Eclipse SUMO duarouter Version 1.8.0
	<routes>

    <input>
        <net-file value="/home/user/Applications/sumo/tools/_Toronto2/osm.net.xml"/>
        <route-files value="/data/Documents/Year4/3p99/input/Toronto/seed-0/340/Toronto.trips.xml"/>
    </input>

    <output>
        <output-file value="/data/Documents/Year4/3p99/input/Toronto/seed-0/340/Toronto.rou.xml"/>
        <alternatives-output value="/data/Documents/Year4/3p99/input/Toronto/seed-0/340/Toronto.rou.alt.xml"/>
    </output>

    <report>
        <ignore-errors value="true"/>
    </report>

</configuration>
-->

<routes>
    <vType id="emergency" maxSpeed="120.00" speedFactor="norm(1.25,0)" vClass="emergency" color="white" accel="3" arrivalLane="2"/>
    <vType id="normal" maxSpeed="40.00" vClass="ignoring" color="blue" accel="3"/>

    <route id="accident_route" edges="42965086 -42965086 -23334836#2 -214366954#7 41843700#0 41843700#3 42785549 42785406#0 24154904#0 -42785404#8 -42785404#6 -42785404#5 42785409#0"/>
    <route id="hospital1" edges="439504245 439504242 162327176 162147163#0 458071278#0 -24154975#10 -24154975#8 -24154975#7 -24154975#6 44164820#3 504872401#0 -42785411#8 -42785411#6 -42785411#4 -42785411#3 -42785411#1 -435756598 -435756257#4 -435756257#3 -435756257#1 -42785421#3 -42785421#1 -35599340#10 -35599340#9 -42785406#2 -42785549 -41843700#4 -41843700#2 214366954#7 23334836#0"/>
    <route id="hospital2" edges="-42965140#1 -42141128#4 -42141128#2 -42141128#1 -42141128#0 23334937#0 42965097 23334824#0 42141124#0 42141124#1 42141124#3 -42965086"/>

    <vehicle id="vehicle_0" depart="0.00" route="accident_route"/>
    <vehicle id="vehicle_1" depart="0.00" route="hospital2"/>

    <vehicle id="1" depart="0.00">
        <route edges="-44164882#6 44164882#6 44164882#7 42784502#0 42784502#1 42784502#2 42784502#3 -44164766#2 -44164766#0 -44164765#1 -43331306 -24154904#3 -35599340#6 -35599340#2 -35599340#0 -38518772#1 38518764#0 38518768#0 -456569450 -35599335 -42785408#1"/>
    </vehicle>
    <vehicle id="2" depart="0.00">
        <route edges="22780706#0 -22780706#1 -22780705#1 10153829#0 42705134#0 42705130#0 42705130#2 273759957#0 -35599338#1 -446315297 -38518773 38518769#0 38518768#0 -456569450 -35599335 -42785408#1 -456562064#2 -456562064#1 -44164736#1"/>
    </vehicle>
    <vehicle id="3" depart="0.00">
        <route edges="42785412#8 -42785412#8 -42785412#7 -42785412#6 -42785412#5 -42785412#4 -42785412#3 -42785412#2 -42785412#1 -42785422#4"/>
    </vehicle>
    <vehicle id="4" depart="0.00">
        <route edges="10153829#0 42705134#0 42705130#0 42705130#2 273759957#0 -35599338#1 -446315297 -38518773 38518769#0 38518770#0 38518772#0 35599340#0 35599340#1 35599340#3 35599340#7 35599340#10 42785421#0 42785421#2 435756257#0 435756257#2 435756257#4 435756257#5 435756258 42785411#2 42785411#4 42785411#5 -43332232#1 24154991#4 24154991#5"/>
    </vehicle>
    <vehicle id="5" depart="0.00">
        <route edges="43332243#0 42785411#10 43332242#0 43332245#0 43332245#1 42786485#0 24154819#1 24154819#3 24154819#4 -41843762#3 -41843762#2 -41843762#1 -41843762#0 -188692300 -25795200#1 -43131702 -252994870 -3979615#5 -3979615#2 -3979615#0 -504874503 -214366954#13 -214366954#11 -214366954#10 -214366954#9 -214366954#8 -214366954#7 214366954#7"/>
    </vehicle>
    <vehicle id="6" depart="0.00">
        <route edges="-42785415#0 -42785424#3 -42785424#1 -35599341#7 -35599341#6 42785549 42785406#0"/>
    </vehicle>
    <vehicle id="7" depart="0.00">
        <route edges="24155234 43331547#0 -435756257#4 -435756257#3 42785545#2 -42785404#0"/>
    </vehicle>
    <vehicle id="8" depart="0.00">
        <route edges="43332245#1 -26596145#1 -43332227#2 -43332227#1 -43332227#0 -43332226#1 -504872401#1 504872401#0"/>
    </vehicle>
    <vehicle id="9" depart="0.00">
        <route edges="42785422#2 42785412#0 42785412#2 42785412#3 42785412#4 42785412#5 42785412#6 42785412#7 42785412#8 42785412#9 42785412#10 -43332242#2 43332242#0"/>
    </vehicle>
    <vehicle id="10" depart="0.00">
        <route edges="-42785552 -43332237#2 -42785550#1 -42785550#0 -42785415#3 -42785415#2 -42785415#1 -42785415#0 -42785424#3 -42785424#1 -35599341#7 -35599341#6 -35599341#4 -35599341#2 -35599341#0 -24153478#1 -10153830#3 -10153830#1 42705135#0"/>
    </vehicle>
    <vehicle id="11" depart="0.00">
        <route edges="43332236#1 42785550#1 43332237#2 42786476#0 24154819#3 24154819#4 -41843762#3 24154750#0 24154750#1 43131703 43131700 377680959 3979577#0"/>
    </vehicle>
    <vehicle id="12" depart="0.00">
        <route edges="-82696480#3 24155050#0 44164823#0 44164823#1 44164823#2 -24154991#2 -24154991#1"/>
    </vehicle>
    <vehicle id="13" depart="0.00">
        <route edges="-44164904#1 42785413#0 42785413#3 42785413#4 -43331545#1 -43331545#0 -43331544#2 -42785546#1 -41843707#1 -41843707#0 -24153560#2 -252994870 252994870"/>
    </vehicle>
    <vehicle id="14" depart="0.00">
        <route edges="435756257#4 -435756257#4 -435756257#3 -435756257#1 -42785421#3 -42785421#1 24154888#2 43331312 -35599341#7 -35599341#6 -41843700#4 -41843700#2 214366954#7 23334836#0 42965086 42965100 44166989#0"/>
    </vehicle>
    <vehicle id="15" depart="0.00">
        <route edges="10153830#0 -10153831#1 42705130#2 273759957#0 -35599338#1 24153576#0 43331305#0 43331305#1 43331305#3"/>
    </vehicle>
    <vehicle id="16" depart="0.00">
        <route edges="-42785412#6 -42785412#5 -42785412#4 -42785412#3 -42785412#2 -42785412#1 -42785422#4 -42785422#1 -43331314 -43331305#6 -43331305#4 42785536#1"/>
    </vehicle>
    <vehicle id="17" depart="0.00">
        <route edges="24154719#3 43332245#1 -26596145#1 -26596145#0 -42785550#2 -42785550#1 -42785550#0 -42785415#3 -42785415#2 -42785415#1 -42785415#0 -42785424#3 -42785424#1 -35599341#7 -35599341#6 -35599341#4 -35599341#2 -35599341#0 42785538 -24153489#1 -214366565#1 -214366560"/>
    </vehicle>
    <vehicle id="18" depart="0.00">
        <route edges="41843762#1 41843762#2 41843762#3 24154787#0 -42784219#0 504872403 42784221 -42786475 -42786479 -43332236#2 -42785550#0 -43332235 -435756259 -435756598"/>
    </vehicle>
    <vehicle id="19" depart="0.00">
        <route edges="42785548 43331311#0 -35599340#9 -35599340#6 -35599340#2 -35599340#0 -38518772#1 38518764#0 38518768#0"/>
    </vehicle>
    <vehicle id="20" depart="0.00">
        <route edges="-10153830#1 42705135#0 42705132#0 37106381#0 256520229#7 256520229#8 214366956#0 226669866#0 226669866#2 214366954#0 214366954#2 214366954#3 214366954#5 214366954#7 214366954#8 214366954#9 214366954#10 214366954#11 214366954#12 504874503 3979615#0 3979615#2 3979615#5 252994870 43131702 25795200#0 188692300"/>
    </vehicle>
    <vehicle id="21" depart="0.00">
        <route edges="43131988 -377680959 -43131700 -43131703 -24154750#2 -24154750#0 41843762#3 24154787#0 -42784219#0 504872403 42784221 -42786475 -42786479 -43332236#2 -42785550#0 -43332235 -435756259 -435756598 -43331547#3 -44164883#7 -44164883#5 -44164883#4 -44164883#3 -44164883#2 -44164883#1 -44164883#0 -24154740#1 44164882#0 44164882#1 44164882#2 44164882#3 44164882#4 44164882#5 44164882#6 44164882#7 42784502#0 42784502#1 42784502#2 42784502#3 -42784502#3"/>
    </vehicle>
    <vehicle id="22" depart="0.00">
        <route edges="-42965087#0 42965087#0 42965087#1 42965087#2 41843712#0 214366954#2 214366954#3 214366954#5 41843700#0 41843700#3 42785549 43331305#5 43331311#0"/>
    </vehicle>
    <vehicle id="23" depart="0.00">
        <route edges="-41843701 -23334941#2 -214366954#9 24154892#0 24154892#4"/>
    </vehicle>
    <vehicle id="24" depart="0.00">
        <route edges="-42785404#5 42785409#0 -42785421#1 24154888#2 43331312 -35599341#7 -35599341#6 -41843700#4 -41843700#2 214366954#7 23334836#0 42965086 42141124#5 42965084 44166989#1"/>
    </vehicle>
    <vehicle id="25" depart="0.00">
        <route edges="42785415#0 -41843706 -24154871#2 25517455#0 -23334948#4 -23334948#3 41843703#0 41843703#1 -44166989#2 -44166989#1 -44166989#0 -44166988 -44166987"/>
    </vehicle>
    <vehicle id="26" depart="0.00">
        <route edges="-24154927#1 43331305#0 43331305#1 43331305#3 43331305#5 43331314 42785422#0 42785422#2 42785412#0 42785412#2 42785412#3 42785412#4 42785412#5 43332236#0 43332236#1 -42785550#0"/>
    </vehicle>
    <vehicle id="27" depart="0.00">
        <route edges="226669866#0 226669866#2 214366954#0 214366954#2 214366954#3 214366954#5 214366954#7 214366954#8 214366954#9 214366954#10 214366954#11 214366954#12 504874503 3979615#0 3979615#2 3979615#5 252994870 43131702 25795200#0 188692300 41843762#0 41843762#1 41843762#2 41843762#3 24154787#0 -42784219#0 504872403 42784221 -42786475 -42785552 -43332227#3 -43332227#2 -43332227#1 -43332227#0 -42785412#9 -43332240#2 -43332232#1 -44164822#1 44164822#1"/>
    </vehicle>
    <vehicle id="28" depart="0.00">
        <route edges="-24155053#0 -24155050#1 82696480#2 552490264#2 552490264#5 44164881#0 24154740#0"/>
    </vehicle>
    <vehicle id="29" depart="0.00">
        <route edges="41843702#0 504874503 3979615#0 3979615#2 3979615#5 252994870 43131702 25795200#0 188692300 41843762#0 41843762#1 41843762#2 41843762#3 24154787#0 -42784219#0 504872403 42784221 -42786475 -42785552 -43332227#3 -26596145#0 -43332238#2 24154719#2"/>
    </vehicle>
    <vehicle id="30" depart="0.00">
        <route edges="42785538 -24153489#1 -214366565#1 -214366560 -42705143 24153478#0"/>
    </vehicle>
    <vehicle id="31" depart="0.00">
        <route edges="44164904#0 -44164904#0 -24155057#4 -24155057#3 24155057#3"/>
    </vehicle>
    <vehicle id="32" depart="0.00">
        <route edges="24154991#3 43332232#0 -42785411#6 -42785411#4 -42785411#3 -42785411#1 -435756598 -435756257#4 -435756257#3 -435756257#1 -43331546#2 -24154883#1 -42785414#7 -44164905#1"/>
    </vehicle>
    <vehicle id="33" depart="0.00">
        <route edges="24155039#0 -24155039#1 24154991#8 24154692#0 43332242#0 -42785412#10 -42785412#9 -42785412#8 43332238#0 43332238#1 -24154719#1 -43332237#0"/>
    </vehicle>
    <vehicle id="34" depart="0.00">
        <route edges="24154927#1 35599341#0 35599341#1 35599341#3 42785549 42785406#0 24154904#0 43331306 -42785414#2"/>
    </vehicle>
    <vehicle id="35" depart="0.00">
        <route edges="-41843700#2 41843700#0 41843700#3 42785549 42785406#0 24154904#0 43331306 44164765#0 44164766#0 44164766#1 -42784502#3 -42784502#2 -42784502#1 -42784502#0 -44164882#8 -44164882#6 -44164882#5 -44164882#4 -44164882#3 -44164882#2 -44164882#1 -784869758 -37407766"/>
    </vehicle>
    <vehicle id="36" depart="0.00">
        <route edges="24155060#1 42785403#0 42785403#1 44164906#0 -42784502#0 -44164882#8 -44164882#6 -44164882#5 -44164882#4 -44164882#3 -44164882#2 -44164882#1 -44164882#0 -44164881#1 -552490264#8 -552490264#4 -82696480#3 -82696480#1 -82696481#2 -44164819#2 24155041#0 35674241#1"/>
    </vehicle>
    <vehicle id="37" depart="0.00">
        <route edges="10153829#0 42705134#0 10153830#0 10153830#2 24153478#0 -24154927#1"/>
    </vehicle>
    <vehicle id="38" depart="0.00">
        <route edges="42785403#1 -42785400#1 -42785400#0 -24155057#4 -24155057#3 -24155057#2 -43331545#2 -43331545#1 -43331545#0 -43331544#2 43331544#0"/>
    </vehicle>
    <vehicle id="39" depart="0.00">
        <route edges="44164736#0 -42785404#10 -24154904#3 -42785406#2 -42785549 -41843700#4 -41843700#2 214366954#7 214366954#8 214366954#9 214366954#10 214366954#11 214366954#12 504874503 3979615#0 3979615#2 25517455#0 41843708 42965089"/>
    </vehicle>
    <vehicle id="40" depart="0.00">
        <route edges="43332236#1 -42785550#0 -43332235 -435756259 -435756598 -43331547#3 -44164883#7 -44164883#5 -44164883#4 -44164883#3 -44164883#2 -44164883#1 -44164883#0 -24154740#1 44164882#0 44164882#1 44164882#2 44164882#3 44164882#4 44164882#5 44164882#6 44164882#7 42784502#0 42784502#1 42784502#2 -223081729#1 -44164767#3 44164767#0"/>
    </vehicle>
    <vehicle id="41" depart="0.00">
        <route edges="24153489#0 -42785538 35599341#0 35599341#1 35599341#3 35599341#5 35599341#7 42785424#0 42785424#2 -42785547 42785412#0 42785412#2 42785412#3 42785412#4 42785412#5 42785412#6 42785412#7 42785412#8 42785412#9 42785412#10 -43332242#2"/>
    </vehicle>
    <vehicle id="42" depart="0.00">
        <route edges="41843701 -41843701 23334948#1 23334948#2 23334948#3 23334948#4 41843709#0 3979615#5 252994870 43131702 25795200#0 188692300 41843762#0 41843762#1 41843762#2 41843762#3 24154787#0 -42784219#0 504872403 42784221 -42786475 -42786479 -43332236#2 -43332236#1 -43332236#0 42785412#6 42785412#7 -42785412#7"/>
    </vehicle>
    <vehicle id="43" depart="0.00">
        <route edges="42785424#2 -42785424#3 -42785424#1 -35599341#7 -35599341#6 -35599341#4 -35599341#2 -35599341#0 -24153478#1 42705143 214366560 214366565#0 35599343#0 214366558 214366563 35599344 214366554 38518799#0 38518801#0 439081516 38518803#0 38518803#1 38518803#2 38518803#3 38518803#4 38518803#5 42965096 42965097"/>
    </vehicle>
    <vehicle id="44" depart="0.00">
        <route edges="43332232#0 -43332232#1 24154991#4 -44164820#4 -44164820#2 -24155037#5 24155037#4"/>
    </vehicle>
    <vehicle id="45" depart="0.00">
        <route edges="44164882#5 -44164882#5 -44164882#4 -44164882#3 -44164882#2 -44164882#1 -44164882#0 -44164881#1 -552490264#8 -552490264#4 -82696480#3 -82696480#1 -82696481#2 -44164819#2 -424908966 -439504238 44164818#0 439504245 439504242 162327176 162147163#0 458071278#0 -24154975#10 24154975#9"/>
    </vehicle>
    <vehicle id="46" depart="0.00">
        <route edges="-44526819 -22780712#1 -124818961 -124818962#2 -22780702#1 -256520229#7 -37106381#1 37106381#0"/>
    </vehicle>
    <vehicle id="47" depart="0.00">
        <route edges="82696480#1 82696480#2 552490264#2 552490264#5 44164881#0 44164882#0 44164882#1 44164882#2 44164882#3 44164882#4 44164882#5 44164882#6 44164882#7 42784502#0 42784502#1 42784502#2 42784502#3 -44164766#2 -44164766#0 -44164765#1 -42785414#2 -42785414#1 -42785414#0 44164734#1"/>
    </vehicle>
    <vehicle id="48" depart="0.00">
        <route edges="42785414#0 223082350#1 43331309#0 35599340#1 35599340#3 35599340#7 -43331311#1 -42785548 -24154892#4 -24154892#3"/>
    </vehicle>
    <vehicle id="49" depart="0.00">
        <route edges="24155060#1 -24155060#1 42785404#6 42785404#7 -24154904#3 -35599340#6 -35599340#2 -35599340#0 -38518772#1 38518764#0 38518766#0 38518773 435757767 35599338#0 35599338#2 42705143 214366560 214366565#0 35599343#0 214366558 214366563 35599344 214366554 38518799#0 -214366956#1 -439081544 22780702#0 124818962#0 124818961"/>
    </vehicle>
    <vehicle id="50" depart="0.00">
        <route edges="25517481#1 -25517481#1 -25517481#0 42965093 -42965090#2 -42965090#0 42965091"/>
    </vehicle>
    <vehicle id="51" depart="0.00">
        <route edges="-42785406#2 -42785549 -35599341#4 -35599341#2 -35599341#0 -24153478#1 42705143"/>
    </vehicle>
    <vehicle id="52" depart="0.00">
        <route edges="-24158198#1 42785326 -223082355 -24158207#1 -44164882#8 -44164882#6 -44164882#5 -44164882#4 -44164882#3 -44164882#2 -44164882#1 -44164882#0 24154740#0 44164883#0 44164883#1 44164883#2 44164883#3 44164883#4 44164883#5 44164883#6 43331547#0 43331548#0 42785541#0 42785541#1 42785541#2 42785541#3 42785556 42784217 24154819#4 -41843762#3"/>
    </vehicle>
    <vehicle id="53" depart="0.00">
        <route edges="42785414#10 -43331545#0 -43331544#2 435756257#4 435756257#5 435756258 42785411#2 24154859#0 43332237#0 43332237#1 43332237#2 42786476#0 42786476#3 42786489 -42786489"/>
    </vehicle>
    <vehicle id="54" depart="0.00">
        <route edges="42785540 -42785540 -43331312 -24154888#3 42785421#0 42785421#2 435756257#0 435756257#2 435756257#4 435756257#5 435756258 -43332228#2 24154991#1 -24154991#1"/>
    </vehicle>
    <vehicle id="55" depart="0.00">
        <route edges="-35599340#9 35599340#7 35599340#10 42785421#0 42785421#2 43331313#0 42785547 42785539 41843704#0"/>
    </vehicle>
    <vehicle id="56" depart="0.00">
        <route edges="-23334941#2 214366954#10 214366954#11 214366954#12 504874503 3979615#0 3979615#2 3979615#5 252994870 43131702 25795200#0 188692300 41843762#0 41843762#1 41843762#2 41843762#3 24154787#0 -42784219#0 504872403 42784221 -42786475 -42786479 -43332236#2 -43332236#1 -43332236#0 -43332228#4 -43332228#2 -44164880#2 24154975#1 24154975#2"/>
    </vehicle>
    <vehicle id="57" depart="0.00">
        <route edges="43332245#1 42786485#0 24154819#1 24154819#3 24154819#4 -41843762#3 -41843762#2 -41843762#1 -41843762#0 -188692300 -25795200#1 -43131702 -252994870 -3979615#5 25517455#0 -23334948#4 -23334948#3 -23334948#2 -23334948#1 23334948#1"/>
    </vehicle>
    <vehicle id="58" depart="0.00">
        <route edges="38518768#0 -456569450 -35599335 -42785408#1 -456562064#2 -456562064#1 -42785404#10 43331306 44164765#0 44164766#0 44164766#1 -42784502#3 -223081729#1"/>
    </vehicle>
    <vehicle id="59" depart="0.00">
        <route edges="26596145#1 -26596145#1 -26596145#0 -43332238#2 -43332238#1 -43332238#0 -43332239#2 -42785411#4 -42785411#3 -42785411#1 -435756598 -435756257#4 43331544#0 43331545#0 43331545#1 -42785413#4 -42785413#3 24155226"/>
    </vehicle>
    <vehicle id="60" depart="0.00">
        <route edges="24154970 42785401 42785416 42785413#0 42785413#3 42785413#4 -43331545#1 -43331545#0 -43331544#2 435756257#4 435756257#5 435756258 42785411#2 42785411#4 42785411#5 43332240#0 -43332240#2"/>
    </vehicle>
    <vehicle id="61" depart="0.00">
        <route edges="-43332232#1 24154991#4 -44164820#4 -44164820#2 -24155037#5 -24155037#3 -24155037#2 -24155037#1 458071278#0"/>
    </vehicle>
    <vehicle id="62" depart="0.00">
        <route edges="-22780712#0 -42141128#0 -3996374#1 -38518803#6 -38518803#4 -38518803#3 -38518803#2 -38518803#1 -38518803#0 38518800#0 226669866#0 226669866#2 214366954#0 214366954#2 214366954#3 -214366954#4"/>
    </vehicle>
    <vehicle id="63" depart="0.00">
        <route edges="44164887#0 -44164882#3 -44164882#2 -44164882#1 -44164882#0 -44164881#1 -552490264#8 -552490264#4 -82696480#3 -82696480#1 -82696481#2 -44164819#2 -424908966 -439504238 44164818#0 439504245 439504242 162327176 162147163#0 -371515502"/>
    </vehicle>
    <vehicle id="64" depart="0.00">
        <route edges="-25517480#2 -25517480#1 -25517480#0 42965092 -7662746#1 -3979615#5 -3979615#2 -41843704#2"/>
    </vehicle>
    <vehicle id="65" depart="0.00">
        <route edges="42785414#8 42785414#9 42785414#10 43331545#1 42785413#5 42785413#6 -44164880#0 44164880#0"/>
    </vehicle>
    <vehicle id="66" depart="0.00">
        <route edges="-214366954#6 214366954#5 41843700#0 41843700#3 42785549 42785406#0 24154904#0 43331306 44164765#0 44164766#0 44164766#1 -42784502#3 -42784502#2 -42784502#1 -42784502#0 -44164882#8 -44164882#6 -44164882#5 -44164882#4 -44164882#3 -44164882#2 -44164882#1 -44164882#0"/>
    </vehicle>
    <vehicle id="67" depart="0.00">
        <route edges="-24155039#3 -24155039#1 24154991#8 24154692#0 -42785411#11 -42785411#9 -42785411#8 -42785411#6 -42785411#4 -42785411#3 -42785411#1 -435756598 -435756257#4 -435756257#3 -435756257#1 -42785421#3 -42785409#3"/>
    </vehicle>
    <vehicle id="68" depart="0.00">
        <route edges="-42705136#1 457873689 24153489#0 35599342#0 35599342#1 35599342#3 35599342#5 35599342#8 35599342#10"/>
    </vehicle>
    <vehicle id="69" depart="0.00">
        <route edges="-43331309#1 43331309#0 35674245#0 43331310#0 491584567 -35674242"/>
    </vehicle>
    <vehicle id="70" depart="0.00">
        <route edges="214366956#0 38518801#0 439081516 38518803#0 38518803#1 38518803#2 38518803#3 38518803#4 38518803#5 42965096 42965097 23334824#0 -23334824#1"/>
    </vehicle>
    <vehicle id="71" depart="0.00">
        <route edges="-24155039#1 24155039#0 24155039#2 162327465 546851777"/>
    </vehicle>
    <vehicle id="72" depart="0.00">
        <route edges="-41843710#1 -42965088#0 41843709#0 -3979615#2 -3979615#0 -504874503 -214366954#13 -214366954#11 -214366954#10 -214366954#9 -214366954#8 -214366954#7 41843700#0 41843700#3 42785549 42785406#0 24154904#0 43331306 -43331306"/>
    </vehicle>
    <vehicle id="73" depart="0.00">
        <route edges="42141128#1 -42141128#1 -42141128#0 -3996374#1 -38518803#6 -23334934#1 42965087#0"/>
    </vehicle>
    <vehicle id="74" depart="0.00">
        <route edges="439504241#1 439504238 424908966 44164819#1 82696481#1 82696480#1 82696480#2 552490264#2 552490264#5 44164881#0 44164882#0 44164882#1 -44164885#1 -43331545#2 -43331545#1 -43331545#0 -43331544#2 -42785546#1 -42785412#2 -42785412#1 42785547 42785539 -35599342#13"/>
    </vehicle>
    <vehicle id="75" depart="0.00">
        <route edges="37106381#0 256520229#7 256520229#8 214366956#0 226669866#0 226669866#2 214366954#0 214366954#2 214366954#3 214366954#5 214366954#7 23334836#0 42965086 42965100 44166989#0"/>
    </vehicle>
    <vehicle id="76" depart="0.00">
        <route edges="-24153560#2 -252994870 -3979615#5 -3979615#2 -3979615#0 -504874503 -214366954#13 -214366954#11 -214366954#10 -214366954#9 -214366954#8 -214366954#7 -214366954#6 -214366954#4 -214366954#2 -214366954#1 -226669866#2 -226669866#1 38518801#0 439081516 38518803#0"/>
    </vehicle>
    <vehicle id="77" depart="0.00">
        <route edges="42965087#0 -42965087#0 -44166991#3 42141124#1 42141124#3 -42965086 23334948#0 23334948#1 23334948#2 23334948#3 -42965091"/>
    </vehicle>
    <vehicle id="78" depart="0.00">
        <route edges="-42785411#3 -43332228#2 24154991#1 24155052#0"/>
    </vehicle>
    <vehicle id="79" depart="0.00">
        <route edges="-44166989#2 -42965082 -42965083 -23334956#1 -214366954#11 -41843711#2 -35599342#9"/>
    </vehicle>
    <vehicle id="80" depart="0.00">
        <route edges="-82696480#3 -82696480#1 -82696481#2 -44164819#2 24155041#0 44164817#0 -44164817#0"/>
    </vehicle>
    <vehicle id="81" depart="0.00">
        <route edges="24154904#0 43331306 44164765#0 44164766#0 44164766#1 -42784502#3 -223081729#1 -44164767#3 44164767#0 223081729#0"/>
    </vehicle>
    <vehicle id="82" depart="0.00">
        <route edges="-42785555 41843707#0 41843707#1 -42785412#2 -42785412#1 -42785422#4 -42785422#1 -43331314 -43331305#6"/>
    </vehicle>
    <vehicle id="83" depart="0.00">
        <route edges="42786479 -42786479 -43332236#2 -42785550#0 -43332235 -435756259 -435756598 -435756257#4 -435756257#3 -435756257#1 -42785421#3 -42785421#1 -35599340#10 -35599340#9 -35599340#6 44164736#0 -42785404#10"/>
    </vehicle>
    <vehicle id="84" depart="0.00">
        <route edges="24154859#0 43332237#0 43332237#1 43332237#2 42786476#0 24154819#3 24154819#4 -41843762#3 -41843762#2 -41843762#1 -41843762#0 -188692300"/>
    </vehicle>
    <vehicle id="85" depart="0.00">
        <route edges="42705135#0 42705132#0 37106381#0 256520229#7 256520229#8 214366956#0 226669866#0 226669866#2 214366954#0 214366954#2 214366954#3 214366954#5 214366954#7 23334836#0 42965086 42141124#5 42965084 -42965084"/>
    </vehicle>
    <vehicle id="86" depart="0.00">
        <route edges="-23334943#1 23334928#1 44166987 44166988 -42965100 -42965086 -23334836#2 -214366954#7 41843700#0 41843700#3 35599341#5 35599341#7 -43331312 -24154888#3 42785421#0 42785421#2 435756257#0 435756257#2 43331544#0 43331545#0 43331545#1 -42785413#4"/>
    </vehicle>
    <vehicle id="87" depart="0.00">
        <route edges="-42785404#8 -42785404#6 -42785404#5 -42785404#4 -42785404#2 43331543#0 42785414#10 42785414#11 44164883#4 44164883#5 44164883#6"/>
    </vehicle>
    <vehicle id="88" depart="0.00">
        <route edges="-43331313#2 -43331546#2 -42785404#2 43331543#0 42785414#10 -42785414#10"/>
    </vehicle>
    <vehicle id="89" depart="0.00">
        <route edges="-43331545#2 43331545#2 44164885#0 44164882#2 44164882#3 44164882#4 44164882#5 44164882#6 44164882#7"/>
    </vehicle>
    <vehicle id="90" depart="0.00">
        <route edges="25795200#0 188692300 41843762#0 41843762#1 41843762#2 41843762#3 24154787#0 -42784219#0 504872403 42784221 -42786475 -42786479 -43332236#2 42785550#1 42785550#2 26596145#0"/>
    </vehicle>
    <vehicle id="91" depart="0.00">
        <route edges="41843710#1 -41843710#1 -41843710#0 -7662746#1 252994870 43131702 25795200#0 188692300 41843762#0 41843762#1 41843762#2 41843762#3 24154787#0 -42784219#0 504872403 42784221 -42786475 -42785552 -43332227#3 -26596145#0 -43332238#2 -43332238#1"/>
    </vehicle>
    <vehicle id="92" depart="0.00">
        <route edges="-44164881#1 44164881#0 44164882#0 44164882#1 44164882#2 44164882#3 44164882#4 44164882#5 44164882#6 44164882#7 42784502#0 42784502#1 42784502#2 42784502#3 -44164766#2 -44164766#0 -44164765#1 -43331306 -24154904#3 -42785406#2 -42785549 -41843700#4 -35599342#4 35599342#3"/>
    </vehicle>
    <vehicle id="93" depart="0.00">
        <route edges="-10153830#1 10153830#0 10153830#2 42705143 214366560 214366565#0 35599343#0 214366558 214366563 35599344 214366554 38518799#0 38518801#0 439081516 38518803#0 38518803#1 38518803#2 -38518803#2"/>
    </vehicle>
    <vehicle id="94" depart="0.00">
        <route edges="-42965100 -42965086 23334948#0 23334948#1 23334948#2 23334948#3 23334948#4 41843709#0 3979615#5 252994870 43131702 25795200#0 188692300 41843762#0 41843762#1 41843762#2 41843762#3 24154787#0 -42784219#0"/>
    </vehicle>
    <vehicle id="95" depart="0.00">
        <route edges="273759957#0 -35599338#1 24153576#0 43331305#0 43331305#1 43331305#3 43331305#5 43331314 42785422#0 42785422#2 42785412#0 42785412#2 42785412#3 42785412#4 42785412#5 -43332228#4"/>
    </vehicle>
    <vehicle id="96" depart="0.00">
        <route edges="43331311#0 -35599340#9 24154904#0"/>
    </vehicle>
    <vehicle id="97" depart="0.00">
        <route edges="-44164881#1 -552490264#8 -552490264#4 -82696480#3 -82696480#1 -82696481#2 -44164819#2 -424908966 -439504238 44164818#0 439504245 439504242 162327176 162147163#0 -371515502 -162327176 -439504242"/>
    </vehicle>
    <vehicle id="98" depart="0.00">
        <route edges="41843698 35599341#3 35599341#5 35599341#7 -43331312 -24154888#3 42785421#0 42785421#2 435756257#0 435756257#2 435756257#4 435756257#5 435756258 42785411#2 42785411#4 42785411#5 -43332232#1 -44164822#1"/>
    </vehicle>
    <vehicle id="99" depart="0.00">
        <route edges="35599342#3 -41843700#2 214366954#7 214366954#8 214366954#9 23334941#0 -23334941#2"/>
    </vehicle>
    <vehicle id="100" depart="0.00">
        <route edges="-44166991#3 -42141124#0 23334936#0 42965098 -38518803#6 -38518803#4 -38518803#3 -38518803#2 -38518803#1 -38518803#0 38518800#0 38518802#0 -38518804 -35599344 -214366563 -214366558 -35599343#1 -214366565#1 -214366560 -42705143 -35599338#3 -35599338#1 -446315297 -38518773 38518769#0 38518768#0 -456569450 -35599335 -42785408#1"/>
    </vehicle>
    <vehicle id="101" depart="0.00">
        <route edges="-35599342#7 -41843700#2 214366954#7 23334836#0 42965086 -42141124#4 -42141124#2 -42141124#0 23334936#0"/>
    </vehicle>
    <vehicle id="102" depart="0.00">
        <route edges="162147163#0 -371515502 -162327176 -439504242 42137385#0 439504241#1 439504238 424908966 44164819#1 82696481#1 24154862#0"/>
    </vehicle>
    <vehicle id="103" depart="0.00">
        <route edges="42785401 42785416 42785413#0 42785413#3 42785413#4 -43331545#1 -43331545#0 -43331544#2 435756257#4 435756257#5 435756258 42785411#2 42785411#4 42785411#5 43332240#0 42785412#9 43332227#0"/>
    </vehicle>
    <vehicle id="104" depart="0.00">
        <route edges="214366954#0 214366954#2 214366954#3 214366954#5 214366954#7 214366954#8 214366954#9 214366954#10 214366954#11 214366954#12 504874503 3979615#0 3979615#2 3979615#5 252994870 43131702 25795200#0 188692300 41843762#0 -42785558#0 -42785541#3 -42785541#2"/>
    </vehicle>
    <vehicle id="105" depart="0.00">
        <route edges="-82148152 -43131703 -24154750#2 -24154750#0 41843762#3 24154787#0 -42784219#0 504872403 42784221 -42786475 -42786479 -43332236#2 -43332236#1 -43332236#0 -42785412#5 -42785412#4 42785541#0"/>
    </vehicle>
    <vehicle id="106" depart="0.00">
        <route edges="43331310#0 491584567 -35674242 35599340#1 35599340#3 35599340#7 -43331311#1 -42785548 35599341#7 42785424#0 42785424#2 42785415#0 42785544"/>
    </vehicle>
    <vehicle id="107" depart="0.00">
        <route edges="-41843699#3 42141124#3 -42965086 -23334836#2 -214366954#7 41843700#0 41843700#3 42785549 42785406#0 24154904#0 43331306 44164765#0 44164766#0 44164766#1 -42784502#3 -42784502#2 -42784502#1 -42784502#0 8812128#0"/>
    </vehicle>
    <vehicle id="108" depart="0.00">
        <route edges="25795200#0 188692300 41843762#0 41843762#1 41843762#2 41843762#3 24154787#0 -42784219#0 504872403 42784221 -42786475 -42786479 -43332236#2 -42785550#0 -43332235 -435756259 -435756598 -435756257#4 -435756257#3 -435756257#1 -42785421#3 -42785421#1 -35599340#10 -35599340#9 24154904#0 -24154904#3"/>
    </vehicle>
    <vehicle id="109" depart="0.00">
        <route edges="42141124#3 42141124#5 42965084 44166989#1 44166989#2 504874504"/>
    </vehicle>
    <vehicle id="110" depart="0.00">
        <route edges="-44164817#4 44164817#3 43332243#0 42785411#10 43332242#0 43332245#0 43332245#1 42786485#0 24154819#1 24154819#3 24154819#4 -41843762#3 -41843762#2 -41843762#1 -41843762#0 -188692300 -25795200#1 -43131702 -252994870 -3979615#5 -3979615#2 -3979615#0 -504874503 -214366954#13 -214366954#11 -214366954#10 -214366954#9 -214366954#8 -214366954#7 -214366954#6 -214366954#4 -214366954#2 -214366954#1 -226669866#2 -226669866#1 38518801#0 439081516 38518803#0 38518803#1 38518803#2 38518803#3"/>
    </vehicle>
    <vehicle id="111" depart="0.00">
        <route edges="-42786476#4 -42786476#1 -43332237#2 -42785550#1 -42785550#0 -42785415#3 -42785415#2 -41843707#0"/>
    </vehicle>
    <vehicle id="112" depart="0.00">
        <route edges="41843712#0 -214366954#1 -226669866#2 -226669866#1 38518802#0 -38518804 -35599344 -214366563 -214366558 -35599343#1 -214366565#1 -214366560 -42705143 -10153830#3"/>
    </vehicle>