<?xml version="1.0" encoding="UTF-8"?>
<!-- generated on 2023-03-14 23:42:28.553201 by $Id$ v1_8_0+0044-4820708f3d
  options: -n first.net.xml -e 10
-->
<routes xmlns:xsi="http://www.w3.org/2001/XMLSchema-instance" xsi:noNamespaceSchemaLocation="http://sumo.dlr.de/xsd/routes_file.xsd">
    <trip id="0" depart="0.00" from="e34-33" to="e01-02"/>
    <trip id="1" depart="1.00" from="e14-15" to="e12-22"/>
    <trip id="2" depart="2.00" from="e41-51" to="e35-45"/>
    <trip id="3" depart="3.00" from="e51-50" to="e03-13"/>
    <trip id="4" depart="4.00" from="e23-22" to="e01-02"/>
    <trip id="5" depart="5.00" from="e12-22" to="e30-20"/>
    <trip id="6" depart="6.00" from="e01-02" to="e12-02"/>
    <trip id="7" depart="7.00" from="e34-35" to="e31-32"/>
    <trip id="8" depart="8.00" from="e12-22" to="e32-42"/>
    <trip id="9" depart="9.00" from="e44-34" to="e00-01"/>
</routes>
